##############################################################################
#                                                                            #
# This CIF contains the data in a paper accepted for publication in          #
# Acta Crystallographica Section E. It conforms to the requirements of       #
# Notes for Authors for Acta Crystallographica Section E, and has been       #
# peer reviewed under the auspices of the IUCr Commission on Journals.       #
#                                                                            #
# Full details of the Crystallographic Information File format               #
# are given in the paper "The Crystallographic Information File (CIF):       #
# a New Standard Archive File for Crystallography" by S. R. Hall, F. H.      #
# Allen and I. D. Brown [Acta Cryst. (1991), A47, 655-685].                  #
#                                                                            #
# The current version of the core CIF dictionary is obtainable from          #
# ftp://ftp.iucr.org/pub/cif_core.dic.                                       #
#                                                                            #
# Software is freely available for graphical display of the structure(s)     #
# in this CIF. For information consult the CIF software page                 #
# http://www.iucr.org/resources/cif/software.                                #
#                                                                            #
# This file may be used for bona fide research purposes within the           #
# scientific community so long as proper attribution is given to the journal # 
# article from which it was obtained.                                        #
#                                                                            #
##############################################################################
data_I
_audit_creation_method
;
Olex2 1.2
(compiled 2015.01.26 svn.r3150 for OlexSys, GUI svn.r4998)
;
_journal_date_recd_electronic     2015-06-06
_journal_date_accepted     2015-06-07
_journal_name_full     'Acta Crystallographica, Section E'
_journal_year     2015
_journal_volume     71
_journal_issue      7
_journal_page_first     o472
_journal_page_last     o473
_journal_paper_category     HO
_journal_paper_doi     10.1107/S2056989015011056
_journal_coeditor_code     ZL2627
_publ_contact_author_name     'Alexander Nazarenko'
_publ_contact_author_address
;
Chemistry
SUNY College at Buffalo
1300 Elmwood Ave
Buffalo
New York 14222
USA
;
_publ_contact_author_email     nazareay@buffalostate.edu
_publ_contact_author_fax     17168784028
_publ_contact_author_phone     17168785923
_publ_section_title
;
Crystal structure of <i>cis</i>-<i>anti</i>-<i>cis</i>-dicyclohexane-18-crown-6
acetonitrile disolvate
;
_publ_section_title_footnote     .
loop_
    _publ_author_name
    _publ_author_footnote
    _publ_author_address
    'Nazarenko, Alexander' .
;
Chemistry Department
SUNY College at Buffalo
1300 Elmwood Ave
Buffalo
New York 14222
USA
;
_database_code_depnum_ccdc_archive     'CCDC 1405283'
_chemical_name_systematic
;\
<i>cis</i>-<i>anti</i>-<i>cis</i>-2,5,8,15,18,21-\
Hexaoxatricyclo[20.4.0.0^9,14^]hexacosane acetonitrile disolvate
;
_chemical_name_common
;
cis-<i>anti</i>-cis-dicyclohexane-18-crown-6 bis(acetonitrile) solvate
;
_chemical_formula_moiety     'C20 H36 O6, 2(C2 H3 N)'
_chemical_formula_sum     'C24 H42 N2 O6'
_chemical_formula_iupac     'C20 H36 O6, 2C2 H3 N'
_chemical_formula_weight     454.59
_chemical_melting_point     ?
_shelx_space_group_comment
;
The symmetry employed for this shelxl refinement is uniquely defined
by the following loop, which should always be used as a source of
symmetry information in preference to the above space-group names.
They are only intended as comments.
;
_space_group_crystal_system     triclinic
_space_group_name_H-M_alt     'P -1'
_space_group_name_Hall     '-P 1'
loop_
    _space_group_symop_operation_xyz
    'x, y, z'
    '-x, -y, -z'
_cell_length_a     6.9428(4)
_cell_length_b     9.5286(5)
_cell_length_c     9.8927(6)
_cell_angle_alpha     80.415(2)
_cell_angle_beta     81.697(2)
_cell_angle_gamma     80.927(2)
_cell_volume     632.53(6)
_cell_formula_units_Z     1
_cell_measurement_reflns_used     9918
_cell_measurement_theta_min     2.99
_cell_measurement_theta_max     33.16
_cell_measurement_temperature     173(2)
_exptl_crystal_description     block
_exptl_crystal_colour     colourless
_exptl_crystal_size_max     0.491
_exptl_crystal_size_mid     0.342
_exptl_crystal_size_min     0.283
_exptl_crystal_density_diffrn     1.193
_exptl_crystal_density_meas     ?
_exptl_crystal_density_method     ?
_exptl_crystal_F_000     248
_exptl_absorpt_coefficient_mu     0.085
_exptl_absorpt_correction_type     multi-scan
_exptl_absorpt_process_details
;
(SADABS; Bruker, 2014)
;
_shelx_estimated_absorpt_T_min     0.960
_shelx_estimated_absorpt_T_max     0.976
_exptl_absorpt_correction_T_min     0.9562
_exptl_absorpt_correction_T_max     1.0000
_exptl_special_details
;
SADABS-2014/5 (Bruker, 2014) was used for absorption correction.
wR2(int) was 0.0615 before and 0.0513 after correction.
The Ratio of minimum to maximum transmission is 0.9562.
The \l/2 correction factor is 0.00150.
;
_diffrn_ambient_temperature     173
_diffrn_radiation_type     MoK\a
_diffrn_radiation_wavelength     0.71073
_diffrn_measurement_device_type     'Bruker PHOTON-100 CMOS'
_diffrn_measurement_method     '\f and \w scans'
_diffrn_detector_area_resol_mean     10
_diffrn_reflns_number     20203
_diffrn_reflns_av_R_equivalents     0.0309
_diffrn_reflns_theta_min     2.993
_diffrn_reflns_theta_max     27.994
_diffrn_reflns_theta_full     26.000
_diffrn_measured_fraction_theta_max     0.999
_diffrn_measured_fraction_theta_full     0.998
_diffrn_reflns_limit_h_min     -9
_diffrn_reflns_limit_h_max     9
_diffrn_reflns_limit_k_min     -12
_diffrn_reflns_limit_k_max     12
_diffrn_reflns_limit_l_min     -13
_diffrn_reflns_limit_l_max     13
_diffrn_standards_number     0
_refine_special_details     ?
_reflns_number_total     3045
_reflns_number_gt     2476
_reflns_threshold_expression     'I > 2\s(I)'
_refine_ls_structure_factor_coef     Fsqd
_refine_ls_matrix_type     full
_refine_ls_R_factor_all     0.0536
_refine_ls_R_factor_gt     0.0411
_refine_ls_wR_factor_gt     0.0957
_refine_ls_wR_factor_ref     0.1037
_refine_ls_goodness_of_fit_ref     1.065
_refine_ls_restrained_S_all     1.065
_refine_ls_number_reflns     3045
_refine_ls_number_parameters     229
_refine_ls_number_restraints     0
_refine_ls_hydrogen_treatment     refall
_refine_ls_weighting_scheme     calc
_refine_ls_weighting_details
              'w=1/[\s^2^(Fo^2^)+(0.0454P)^2^+0.1761P] where P=(Fo^2^+2Fc^2^)/3'
_atom_sites_solution_hydrogens     difmap
_atom_sites_solution_primary     direct
_atom_sites_solution_secondary     ?
_refine_ls_shift/su_max     0.000
_refine_ls_shift/su_mean     0.000
_refine_diff_density_max     0.292
_refine_diff_density_min     -0.193
_refine_ls_extinction_method     none
_refine_ls_extinction_coef     .
loop_
    _atom_type_symbol
    _atom_type_description
    _atom_type_scat_dispersion_real
    _atom_type_scat_dispersion_imag
    _atom_type_scat_source
    'C' 'C' 0.0033 0.0016
                         'International Tables Vol C Tables 4.2.6.8 and 6.1.1.4'
    'H' 'H' 0.0000 0.0000
                         'International Tables Vol C Tables 4.2.6.8 and 6.1.1.4'
    'N' 'N' 0.0061 0.0033
                         'International Tables Vol C Tables 4.2.6.8 and 6.1.1.4'
    'O' 'O' 0.0106 0.0060
                         'International Tables Vol C Tables 4.2.6.8 and 6.1.1.4'
_computing_data_collection
;
APEX2 (Bruker, 2013)
;
_computing_cell_refinement
;
SAINT (Bruker, 2013)
;
_computing_data_reduction
;
SAINT (Bruker, 2013)
;
_computing_structure_solution
;
<i>SHELXT</i> (Sheldrick, 2015a)
;
_computing_structure_refinement
;
SHELXL2014 (Sheldrick, 2015b)
;
_computing_molecular_graphics
;
OLEX2 (Dolomanov <i>et al.</i>,  2009)
;
_computing_publication_material
;
OLEX2 (Dolomanov <i>et al.</i>,  2009)
;
loop_
    _atom_site_type_symbol
    _atom_site_label
    _atom_site_fract_x
    _atom_site_fract_y
    _atom_site_fract_z
    _atom_site_U_iso_or_equiv
    _atom_site_adp_type
    _atom_site_calc_flag
    _atom_site_occupancy
    _atom_site_disorder_assembly
    _atom_site_disorder_group
    O O3 0.32768(12) 0.49496(8) 0.76820(8) 0.0246(2) Uani d 1 . .
    O O1 0.47462(11) 0.27282(8) 0.32574(8) 0.02307(19) Uani d 1 . .
    O O2 0.24108(12) 0.30700(8) 0.59392(8) 0.0258(2) Uani d 1 . .
    C C10 0.50905(17) 0.66821(12) 0.81733(11) 0.0222(2) Uani d 1 . .
    C C5 0.31527(17) 0.60704(12) 0.84980(11) 0.0217(2) Uani d 1 . .
    C C2 0.28223(19) 0.18001(13) 0.53071(12) 0.0265(3) Uani d 1 . .
    C C1 0.29308(18) 0.22030(14) 0.37680(13) 0.0275(3) Uani d 1 . .
    C C4 0.16935(18) 0.41295(13) 0.80064(13) 0.0259(3) Uani d 1 . .
    C C3 0.22641(18) 0.27499(12) 0.73991(12) 0.0244(3) Uani d 1 . .
    C C6 0.14216(17) 0.72519(13) 0.82817(13) 0.0245(2) Uani d 1 . .
    C C9 0.50976(19) 0.78031(13) 0.91167(13) 0.0278(3) Uani d 1 . .
    C C8 0.3383(2) 0.90062(13) 0.89292(14) 0.0312(3) Uani d 1 . .
    C C7 0.1431(2) 0.84186(14) 0.91736(14) 0.0319(3) Uani d 1 . .
    C C12 0.25068(19) 0.76690(15) 0.34942(15) 0.0356(3) Uani d 1 . .
    N N1 0.2335(2) 0.87640(16) 0.28169(17) 0.0589(4) Uani d 1 . .
    C C11 0.2721(2) 0.62716(15) 0.43442(15) 0.0346(3) Uani d 1 . .
    H H5 0.3067(19) 0.5644(13) 0.9475(14) 0.021(3) Uiso d 1 . .
    H H6A 0.1510(18) 0.7665(14) 0.7324(14) 0.022(3) Uiso d 1 . .
    H H8A 0.357(2) 0.9525(15) 0.7989(16) 0.032(4) Uiso d 1 . .
    H H1A 0.183(2) 0.2961(15) 0.3529(14) 0.031(4) Uiso d 1 . .
    H H2A 0.408(2) 0.1246(15) 0.5572(15) 0.032(4) Uiso d 1 . .
    H H10 0.618(2) 0.5904(14) 0.8319(13) 0.024(3) Uiso d 1 . .
    H H3A 0.356(2) 0.2254(14) 0.7689(13) 0.023(3) Uiso d 1 . .
    H H9A 0.499(2) 0.7318(15) 1.0061(16) 0.032(4) Uiso d 1 . .
    H H2B 0.179(2) 0.1217(15) 0.5635(14) 0.029(3) Uiso d 1 . .
    H H4A 0.140(2) 0.3869(15) 0.9035(16) 0.031(4) Uiso d 1 . .
    H H3B 0.124(2) 0.2113(14) 0.7749(14) 0.026(3) Uiso d 1 . .
    H H6B 0.015(2) 0.6841(15) 0.8527(14) 0.028(3) Uiso d 1 . .
    H H9B 0.636(2) 0.8182(15) 0.8941(15) 0.032(4) Uiso d 1 . .
    H H7A 0.121(2) 0.8002(16) 1.0119(17) 0.035(4) Uiso d 1 . .
    H H1B 0.281(2) 0.1362(17) 0.3363(15) 0.036(4) Uiso d 1 . .
    H H8B 0.337(2) 0.9694(16) 0.9556(16) 0.038(4) Uiso d 1 . .
    H H4B 0.053(2) 0.4659(16) 0.7635(15) 0.033(4) Uiso d 1 . .
    H H7B 0.034(2) 0.9160(17) 0.9006(16) 0.040(4) Uiso d 1 . .
    H H11A 0.360(3) 0.5628(19) 0.3858(19) 0.055(5) Uiso d 1 . .
    H H11B 0.147(3) 0.5936(19) 0.4572(19) 0.057(5) Uiso d 1 . .
    H H11C 0.326(3) 0.635(2) 0.517(2) 0.069(6) Uiso d 1 . .
loop_
    _atom_site_aniso_label
    _atom_site_aniso_U_11
    _atom_site_aniso_U_22
    _atom_site_aniso_U_33
    _atom_site_aniso_U_12
    _atom_site_aniso_U_13
    _atom_site_aniso_U_23
    O3 0.0272(4) 0.0223(4) 0.0253(4) -0.0080(3) 0.0043(3) -0.0085(3)
    O1 0.0231(4) 0.0282(4) 0.0189(4) -0.0070(3) -0.0018(3) -0.0040(3)
    O2 0.0344(5) 0.0210(4) 0.0222(4) -0.0053(3) 0.0006(3) -0.0055(3)
    C10 0.0249(6) 0.0223(5) 0.0196(5) -0.0013(4) -0.0055(4) -0.0028(4)
    C5 0.0283(6) 0.0208(5) 0.0163(5) -0.0032(4) -0.0013(4) -0.0047(4)
    C2 0.0308(6) 0.0222(6) 0.0276(6) -0.0095(5) 0.0034(5) -0.0072(5)
    C1 0.0263(6) 0.0324(6) 0.0273(6) -0.0117(5) -0.0003(5) -0.0099(5)
    C4 0.0262(6) 0.0266(6) 0.0257(6) -0.0081(5) 0.0030(5) -0.0072(5)
    C3 0.0286(6) 0.0229(6) 0.0222(6) -0.0086(5) 0.0009(5) -0.0034(4)
    C6 0.0241(6) 0.0259(6) 0.0237(6) -0.0022(4) -0.0010(4) -0.0065(5)
    C9 0.0335(7) 0.0308(6) 0.0221(6) -0.0079(5) -0.0054(5) -0.0078(5)
    C8 0.0408(7) 0.0249(6) 0.0303(7) -0.0046(5) -0.0029(5) -0.0119(5)
    C7 0.0329(7) 0.0292(6) 0.0335(7) 0.0011(5) 0.0009(5) -0.0137(5)
    C12 0.0277(7) 0.0402(8) 0.0411(8) -0.0068(5) -0.0073(5) -0.0080(6)
    N1 0.0539(9) 0.0474(8) 0.0755(11) -0.0121(7) -0.0197(7) 0.0062(7)
    C11 0.0317(7) 0.0371(7) 0.0340(7) -0.0009(6) -0.0032(6) -0.0063(6)
_geom_special_details
;
All e.s.d.'s (except the e.s.d. in the dihedral angle between two l.s. planes)
are estimated using the full covariance matrix. The cell e.s.d.'s are taken
into account individually in the estimation of e.s.d.'s in distances, angles
and torsion angles; correlations between e.s.d.'s in cell parameters are only
used when they are defined by crystal symmetry. An approximate (isotropic)
treatment of cell e.s.d.'s is used for estimating e.s.d.'s involving l.s.
planes.
;
loop_
    _geom_bond_atom_site_label_1
    _geom_bond_atom_site_label_2
    _geom_bond_site_symmetry_2
    _geom_bond_distance
    _geom_bond_publ_flag
    O3 C5 . 1.4274(13) ?
    O3 C4 . 1.4169(14) ?
    O1 C10 2_666 1.4285(13) ?
    O1 C1 . 1.4230(14) ?
    O2 C2 . 1.4241(13) ?
    O2 C3 . 1.4177(14) ?
    C10 O1 2_666 1.4285(13) ?
    C10 C5 . 1.5210(16) ?
    C10 C9 . 1.5319(16) ?
    C10 H10 . 0.982(13) ?
    C5 C6 . 1.5248(16) ?
    C5 H5 . 0.981(13) ?
    C2 C1 . 1.5009(17) ?
    C2 H2A . 0.994(15) ?
    C2 H2B . 0.964(15) ?
    C1 H1A . 0.992(15) ?
    C1 H1B . 0.974(16) ?
    C4 C3 . 1.5086(16) ?
    C4 H4A . 1.005(15) ?
    C4 H4B . 0.969(15) ?
    C3 H3A . 1.005(13) ?
    C3 H3B . 0.993(14) ?
    C6 C7 . 1.5313(16) ?
    C6 H6A . 0.961(13) ?
    C6 H6B . 1.006(14) ?
    C9 C8 . 1.5256(18) ?
    C9 H9A . 0.969(15) ?
    C9 H9B . 0.983(15) ?
    C8 C7 . 1.5196(19) ?
    C8 H8A . 0.980(15) ?
    C8 H8B . 0.972(16) ?
    C7 H7A . 0.953(16) ?
    C7 H7B . 0.964(16) ?
    C12 N1 . 1.1414(19) ?
    C12 C11 . 1.450(2) ?
    C11 H11A . 0.934(19) ?
    C11 H11B . 0.959(19) ?
    C11 H11C . 0.97(2) ?
loop_
    _geom_angle_atom_site_label_1
    _geom_angle_atom_site_label_2
    _geom_angle_atom_site_label_3
    _geom_angle_site_symmetry_1
    _geom_angle_site_symmetry_3
    _geom_angle
    _geom_angle_publ_flag
    C4 O3 C5 . . 114.40(8) ?
    C1 O1 C10 . 2_666 114.05(8) ?
    C3 O2 C2 . . 111.74(9) ?
    O1 C10 C5 2_666 . 106.49(9) ?
    O1 C10 C9 2_666 . 112.88(9) ?
    O1 C10 H10 2_666 . 108.5(8) ?
    C5 C10 C9 . . 109.33(9) ?
    C5 C10 H10 . . 109.5(8) ?
    C9 C10 H10 . . 110.0(8) ?
    O3 C5 C10 . . 107.36(9) ?
    O3 C5 C6 . . 114.17(9) ?
    O3 C5 H5 . . 108.6(7) ?
    C10 C5 C6 . . 110.98(9) ?
    C10 C5 H5 . . 106.1(8) ?
    C6 C5 H5 . . 109.4(7) ?
    O2 C2 C1 . . 109.38(10) ?
    O2 C2 H2A . . 109.3(8) ?
    O2 C2 H2B . . 109.0(8) ?
    C1 C2 H2A . . 110.7(8) ?
    C1 C2 H2B . . 109.7(8) ?
    H2A C2 H2B . . 108.7(11) ?
    O1 C1 C2 . . 109.04(10) ?
    O1 C1 H1A . . 109.4(8) ?
    O1 C1 H1B . . 111.4(9) ?
    C2 C1 H1A . . 110.0(8) ?
    C2 C1 H1B . . 108.9(9) ?
    H1A C1 H1B . . 108.1(12) ?
    O3 C4 C3 . . 109.11(9) ?
    O3 C4 H4A . . 110.3(8) ?
    O3 C4 H4B . . 110.7(9) ?
    C3 C4 H4A . . 107.7(8) ?
    C3 C4 H4B . . 109.4(9) ?
    H4A C4 H4B . . 109.6(12) ?
    O2 C3 C4 . . 109.08(9) ?
    O2 C3 H3A . . 110.0(7) ?
    O2 C3 H3B . . 110.1(8) ?
    C4 C3 H3A . . 109.8(7) ?
    C4 C3 H3B . . 108.8(8) ?
    H3A C3 H3B . . 109.1(10) ?
    C5 C6 C7 . . 110.51(10) ?
    C5 C6 H6A . . 109.1(8) ?
    C5 C6 H6B . . 110.4(8) ?
    C7 C6 H6A . . 109.7(8) ?
    C7 C6 H6B . . 109.2(8) ?
    H6A C6 H6B . . 107.8(11) ?
    C10 C9 H9A . . 107.7(8) ?
    C10 C9 H9B . . 110.2(8) ?
    C8 C9 C10 . . 110.82(10) ?
    C8 C9 H9A . . 110.1(9) ?
    C8 C9 H9B . . 111.4(8) ?
    H9A C9 H9B . . 106.6(12) ?
    C9 C8 H8A . . 108.6(8) ?
    C9 C8 H8B . . 110.4(9) ?
    C7 C8 C9 . . 111.38(11) ?
    C7 C8 H8A . . 109.9(8) ?
    C7 C8 H8B . . 109.5(9) ?
    H8A C8 H8B . . 107.0(12) ?
    C6 C7 H7A . . 108.0(9) ?
    C6 C7 H7B . . 108.9(9) ?
    C8 C7 C6 . . 111.85(10) ?
    C8 C7 H7A . . 108.5(9) ?
    C8 C7 H7B . . 112.3(9) ?
    H7A C7 H7B . . 106.9(13) ?
    N1 C12 C11 . . 179.47(16) ?
    C12 C11 H11A . . 109.2(11) ?
    C12 C11 H11B . . 109.6(11) ?
    C12 C11 H11C . . 108.9(12) ?
    H11A C11 H11B . . 109.9(15) ?
    H11A C11 H11C . . 108.5(17) ?
    H11B C11 H11C . . 110.8(16) ?
loop_
    _geom_torsion_atom_site_label_1
    _geom_torsion_atom_site_label_2
    _geom_torsion_atom_site_label_3
    _geom_torsion_atom_site_label_4
    _geom_torsion_site_symmetry_1
    _geom_torsion_site_symmetry_2
    _geom_torsion_site_symmetry_3
    _geom_torsion_site_symmetry_4
    _geom_torsion
    _geom_torsion_publ_flag
    O3 C5 C6 C7 . . . . -178.84(9) ?
    O3 C4 C3 O2 . . . . -68.55(12) ?
    O1 C10 C5 O3 2_666 . . . 62.59(10) ?
    O1 C10 C5 C6 2_666 . . . -62.81(11) ?
    O1 C10 C9 C8 2_666 . . . 59.93(13) ?
    O2 C2 C1 O1 . . . . 75.52(12) ?
    C10 O1 C1 C2 2_666 . . . -172.39(9) ?
    C10 C5 C6 C7 . . . . -57.34(13) ?
    C10 C9 C8 C7 . . . . 55.90(14) ?
    C5 O3 C4 C3 . . . . -163.53(9) ?
    C5 C10 C9 C8 . . . . -58.39(13) ?
    C5 C6 C7 C8 . . . . 54.14(14) ?
    C2 O2 C3 C4 . . . . -176.21(10) ?
    C4 O3 C5 C10 . . . . 171.48(9) ?
    C4 O3 C5 C6 . . . . -65.05(12) ?
    C3 O2 C2 C1 . . . . 179.16(10) ?
    C9 C10 C5 O3 . . . . -175.17(9) ?
    C9 C10 C5 C6 . . . . 59.43(12) ?
    C9 C8 C7 C6 . . . . -53.72(15) ?
loop_
    _geom_hbond_atom_site_label_D
    _geom_hbond_atom_site_label_H
    _geom_hbond_atom_site_label_A
    _geom_hbond_site_symmetry_A
    _geom_hbond_distance_DH
    _geom_hbond_distance_HA
    _geom_hbond_distance_DA
    _geom_hbond_angle_DHA
    C11 H11A O3 2_666 0.936(19) 2.51(2) 3.3528(17) 150.8(16)
    C11 H11C O1 2_666 0.97(2) 2.56(2) 3.4809(16) 159.1(15)
_shelx_hkl_file
;
  -1   0   0 1880.74 48.1169   5
  -1   0   0 1914.33 49.2456   1
  -1   0   0 1944.48 47.6034   3
   1   0   0 1937.69 47.3599   2
  -2   0   0 4991.45 127.371   5
  -2   0   0 5199.05 127.109   5
  -2   0   0 5110.19 125.656   3
  -2   0   0 5146.78 127.586   4
  -2   0   0 5073.00 128.965   1
  -2   0   0 5078.75 127.721   2
   2   0   0 5115.30 125.442   5
   2   0   0 5136.13 125.288   2
   2   0   0 5057.03 127.935   4
   2   0   0 5149.45 125.700   5
   2   0   0 5199.63 127.763   1
   2   0   0 5264.24 125.927   3
  -3   0   0 154.130 5.20879   5
  -3   0   0 152.491 5.54024   2
  -3   0   0 153.074 5.29483   5
  -3   0   0 149.281 4.49066   3
  -3   0   0 152.697 5.12191   4
   3   0   0 147.580 5.00490   5
   3   0   0 159.568 4.53576   3
   3   0   0 154.133 5.32966   1
   3   0   0 151.090 5.16646   5
   3   0   0 147.748 5.10697   4
  -4   0   0 759.326 20.2507   4
  -4   0   0 757.678 19.2257   3
  -4   0   0 715.667 20.5841   1
  -4   0   0 749.390 20.3420   5
  -4   0   0 760.036 20.4744   5
   4   0   0 760.799 20.1486   5
   4   0   0 765.852 19.1986   3
   4   0   0 754.227 20.9361   2
   4   0   0 747.466 20.2439   5
   4   0   0 754.174 20.5865   1
  -5   0   0 496.313 14.8181   5
  -5   0   0 499.094 13.2328   3
  -5   0   0 482.535 15.0618   1
  -5   0   0 493.034 15.3000   2
  -5   0   0 509.998 14.7726   5
  -5   0   0 481.247 14.4760   4
   5   0   0 492.644 14.5459   5
   5   0   0 514.502 15.6664   2
   5   0   0 475.253 15.0137   1
   5   0   0 483.450 14.4212   4
   5   0   0 502.313 14.5082   5
   5   0   0 498.503 13.1699   3
  -6   0   0 136.648 6.54098   5
  -6   0   0 141.112 4.83308   3
  -6   0   0 135.277 6.62101   5
  -6   0   0 136.186 6.68306   1
  -6   0   0 131.019 6.62771   4
   6   0   0 146.185 4.89768   3
   6   0   0 139.066 7.20070   2
   6   0   0 135.043 6.27232   5
   6   0   0 138.407 6.18297   4
  -7   0   0 -2.3069 2.36502   4
  -7   0   0 3.32554 2.62866   5
  -7   0   0 1.62012 1.61832   1
  -7   0   0 1.10068 1.89780   5
   7   0   0 -1.0042 1.77655   2
   7   0   0 -3.5438 2.05359   5
   7   0   0 -0.7956 1.35579   4
   7   0   0 0.22462 1.39710   3
  -8   0   0 21.5362 4.94279   1
  -8   0   0 37.7995 5.92141   5
   8   0   0 27.2382 4.90689   4
   8   0   0 34.5683 6.46946   5
   8   0   0 31.5068 5.67047   2
  -9   0   0 7.95530 3.69026   5
  -9   0   0 -1.2363 2.48975   1
   9   0   0 5.52612 3.27556   2
   9   0   0 2.26801 2.74086   4
   9  -1   0 7.35937 3.74422   2
  -9   1   0 4.84790 3.20284   1
  -9   1   0 6.06894 3.49743   5
   8  -1   0 18.3905 5.59911   2
   8  -1   0 5.60659 2.44074   4
  -8   1   0 2.39900 2.42417   1
  -8   1   0 8.16985 3.11482   5
   7  -1   0 20.5061 4.59071   2
   7  -1   0 23.8985 3.62672   4
  -7   1   0 16.4857 4.76987   4
  -7   1   0 22.5894 4.27217   1
  -7   1   0 15.9756 3.65586   5
  -7   1   0 19.6960 4.32671   5
   6  -1   0 48.0798 3.67911   4
   6  -1   0 48.2765 4.93955   2
   6  -1   0 48.9017 2.84454   3
   6  -1   0 52.6095 4.53103   5
  -6   1   0 46.9070 4.40081   5
  -6   1   0 51.2418 4.28470   1
  -6   1   0 50.7181 4.56835   5
  -6   1   0 45.5026 4.27251   4
  -6   1   0 52.3452 2.72711   3
   5  -1   0 402.686 12.3340   5
   5  -1   0 422.122 13.7511   2
   5  -1   0 427.373 13.3309   1
   5  -1   0 411.262 12.3391   4
   5  -1   0 427.906 11.3736   3
   5  -1   0 425.623 12.6505   5
  -5   1   0 415.431 11.3282   3
  -5   1   0 426.845 12.4388   4
  -5   1   0 405.735 13.2977   1
  -5   1   0 391.698 12.7247   5
  -5   1   0 427.751 12.9058   5
   4  -1   0 107.887 4.86448   1
   4  -1   0 110.357 4.30283   4
   4  -1   0 114.465 3.71276   3
   4  -1   0 99.8703 4.73187   5
   4  -1   0 106.861 5.10102   2
   4  -1   0 108.853 4.32350   5
  -4   1   0 116.905 4.78436   5
  -4   1   0 95.9605 4.69513   1
  -4   1   0 104.851 3.64145   3
  -4   1   0 106.827 4.49706   5
  -4   1   0 106.463 5.08858   2
  -4   1   0 104.359 4.26119   4
   3  -1   0 83.1656 3.66168   1
   3  -1   0 80.7882 3.19727   4
   3  -1   0 80.7186 3.21435   5
   3  -1   0 83.4153 2.85893   3
   3  -1   0 79.0403 3.87736   2
  -3   1   0 79.3701 3.76507   2
  -3   1   0 82.9241 3.26545   4
  -3   1   0 84.5067 3.54804   5
  -3   1   0 83.7252 2.86348   3
  -3   1   0 83.2387 3.68848   1
   2  -1   0 100.196 3.22878   5
   2  -1   0 97.5537 3.75014   2
   2  -1   0 97.6139 3.13297   4
   2  -1   0 99.5399 3.05311   3
   2  -1   0 101.393 3.64896   1
  -2   1   0 92.2832 3.26217   5
  -2   1   0 100.641 3.42369   5
  -2   1   0 100.048 3.61003   1
  -2   1   0 99.1661 3.76363   2
  -2   1   0 99.1237 3.04771   3
  -2   1   0 99.2748 3.16279   4
   1  -1   0 120.912 3.31878   4
   1  -1   0 124.069 3.84978   2
   1  -1   0 121.920 3.74209   1
   1  -1   0 125.761 3.42151   5
   1  -1   0 125.248 3.51406   3
  -1   1   0 122.920 3.77667   1
  -1   1   0 126.665 3.83741   2
  -1   1   0 123.253 3.50695   3
  -1   1   0 122.922 3.50798   5
  -1   1   0 123.263 3.32469   4
  -1   1   0 123.646 3.46455   5
  -1  -1   0 28.9094 1.42245   4
  -1  -1   0 32.4336 1.32847   5
  -1  -1   0 30.8383 1.29341   3
  -1  -1   0 31.6611 1.33311   5
  -1  -1   0 26.6004 1.21811   2
   1   1   0 32.5076 1.37296   5
   1   1   0 32.0230 1.31477   5
   1   1   0 32.4565 1.29361   2
   1   1   0 25.3739 1.28022   1
   1   1   0 30.3323 1.47170   4
  -2  -1   0 591.478 15.3589   4
  -2  -1   0 572.748 14.8142   3
  -2  -1   0 579.514 15.3041   1
  -2  -1   0 590.523 15.2175   2
  -2  -1   0 559.751 15.1177   5
   2   1   0 578.317 15.2254   2
   2   1   0 569.769 14.7768   3
   2   1   0 562.245 15.3406   4
   2   1   0 587.258 15.1332   5
   2   1   0 575.131 15.1924   5
   2   1   0 586.847 15.2636   1
  -3  -1   0 9.79634 1.56411   5
  -3  -1   0 9.22540 1.43825   5
  -3  -1   0 6.14789 1.49704   2
  -3  -1   0 9.31929 1.66362   4
  -3  -1   0 7.78716 1.01984   3
   3   1   0 9.99324 1.09322   3
   3   1   0 10.1908 1.22946   5
   3   1   0 8.13785 1.46591   5
   3   1   0 7.96030 1.45997   2
   3   1   0 8.71401 1.40891   1
   3   1   0 8.50386 1.39290   4
  -4  -1   0 57.2143 3.53473   5
  -4  -1   0 61.1032 3.36135   4
  -4  -1   0 56.9118 2.57549   3
  -4  -1   0 52.4600 3.27064   1
  -4  -1   0 61.1695 3.56581   2
   4   1   0 57.5357 3.20125   5
   4   1   0 55.4719 3.20391   5
   4   1   0 55.8987 3.42110   2
   4   1   0 55.8443 2.52651   3
   4   1   0 60.1621 3.44591   1
   4   1   0 57.4710 3.31086   4
  -5  -1   0 110.027 5.62944   5
  -5  -1   0 115.752 5.51817   4
  -5  -1   0 112.753 4.25699   3
  -5  -1   0 114.275 5.38682   5
  -5  -1   0 120.027 5.87672   2
  -5  -1   0 118.098 5.54007   1
   5   1   0 111.163 5.17672   5
   5   1   0 113.793 5.32513   1
   5   1   0 119.071 5.26861   5
   5   1   0 110.437 5.63006   2
   5   1   0 115.967 4.24261   3
   5   1   0 112.032 5.28197   4
  -6  -1   0 28.6308 3.59364   5
  -6  -1   0 22.8756 3.34948   1
  -6  -1   0 23.7290 2.27409   3
  -6  -1   0 20.9276 4.32461   5
  -6  -1   0 28.2244 4.09122   4
   6   1   0 28.5463 3.86600   2
   6   1   0 28.9340 3.48971   5
   6   1   0 23.5713 4.41794   5
   6   1   0 24.8190 2.29662   3
   6   1   0 29.6920 3.59433   4
  -7  -1   0 19.4284 3.80825   1
  -7  -1   0 17.2865 4.12937   5
  -7  -1   0 20.1634 4.14532   5
   7   1   0 24.1661 4.74311   2
   7   1   0 15.4060 4.47222   5
   7   1   0 15.8352 2.57024   3
   7   1   0 21.7039 3.83812   4
  -8  -1   0 74.1476 6.66071   5
  -8  -1   0 61.6577 6.15619   1
   8   1   0 65.8914 6.87596   5
   8   1   0 53.5551 6.20808   2
   8   1   0 65.3912 5.86966   4
  -9  -1   0 -0.6996 2.85970   1
  -9  -1   0 -0.7074 2.97664   5
   9   1   0 18.3506 6.32734   4
   9   1   0 0.32994 3.01959   2
   9  -2   0 -0.7478 3.50422   2
  -9   2   0 -0.5145 2.84959   1
  -9   2   0 -5.1068 3.04176   5
   8  -2   0 13.9216 4.08650   4
   8  -2   0 16.8475 5.65154   2
  -8   2   0 19.9640 5.22600   5
  -8   2   0 18.8728 5.39439   1
   7  -2   0 0.27752 1.49168   4
   7  -2   0 0.25982 1.89648   2
   7  -2   0 5.21235 2.00300   5
  -7   2   0 1.64469 1.65949   1
  -7   2   0 -0.5401 2.24500   5
  -7   2   0 4.29865 2.22547   4
  -7   2   0 0.88525 2.01030   5
   6  -2   0 5.96584 2.12386   2
   6  -2   0 4.94727 1.48102   4
   6  -2   0 6.02805 1.83611   5
   6  -2   0 6.35561 1.50189   3
  -6   2   0 4.46464 1.64670   5
  -6   2   0 5.30625 1.29880   3
  -6   2   0 5.49323 2.14701   5
  -6   2   0 4.24558 1.42749   1
  -6   2   0 3.25804 1.82244   4
   5  -2   0 74.9066 3.89908   5
   5  -2   0 70.5815 3.21615   3
   5  -2   0 67.2737 4.88302   2
   5  -2   0 63.3396 4.46591   1
   5  -2   0 56.0097 3.70322   5
  -5   2   0 69.1154 3.76982   4
  -5   2   0 67.5775 3.03460   3
  -5   2   0 69.8334 4.50673   1
  -5   2   0 64.3885 4.00584   5
  -5   2   0 65.5496 4.06740   5
  -5   2   0 63.7212 5.10282   2
   4  -2   0 89.1576 4.55497   1
   4  -2   0 91.2601 3.48957   3
   4  -2   0 93.7584 3.65167   4
   4  -2   0 89.6129 3.78380   5
   4  -2   0 83.9211 4.70341   2
   4  -2   0 94.4455 3.91053   5
  -4   2   0 86.0515 4.01920   5
  -4   2   0 87.9792 3.69198   4
  -4   2   0 90.3606 3.46389   3
  -4   2   0 88.3129 4.23749   5
  -4   2   0 94.1394 4.65353   1
  -4   2   0 88.1442 4.78911   2
   3  -2   0 1295.14 32.3951   5
   3  -2   0 1295.93 32.2351   4
   3  -2   0 1333.35 32.3571   3
   3  -2   0 1294.92 33.3354   1
   3  -2   0 1333.54 32.5954   5
   3  -2   0 1302.90 33.7202   2
  -3   2   0 1313.70 32.3517   3
  -3   2   0 1250.57 33.3646   1
  -3   2   0 1293.64 32.2208   4
  -3   2   0 1295.67 32.7204   5
  -3   2   0 1282.30 32.8249   5
  -3   2   0 1245.22 33.4833   2
   2  -2   0 356.468 9.20957   4
   2  -2   0 361.828 10.3391   2
   2  -2   0 353.141 9.44236   5
   2  -2   0 349.290 10.1057   1
   2  -2   0 364.335 9.36343   5
   2  -2   0 364.436 9.61779   3
  -2   2   0 341.608 10.1252   1
  -2   2   0 354.794 10.2529   2
  -2   2   0 352.236 9.64017   5
  -2   2   0 355.741 9.59094   3
  -2   2   0 359.885 9.20978   4
  -2   2   0 355.020 9.56853   5
   1  -2   0 7.91679 0.90957   3
   1  -2   0 7.49852 0.62243   5
   1  -2   0 6.07845 1.00626   2
   1  -2   0 6.54275 0.57234   5
  -1   2   0 6.01810 0.64632   5
  -1   2   0 6.50967 0.85372   3
  -1   2   0 6.09217 1.01966   2
  -1   2   0 6.40796 0.75489   5
  -1   2   0 6.49292 0.60010   4
   0  -2   0 5869.70 146.568   1
   0  -2   0 6179.27 143.253   5
   0  -2   0 6008.78 142.951   5
   0  -2   0 5912.57 144.423   4
   0  -2   0 5770.34 143.292   2
   0   2   0 5901.27 143.933   5
   0   2   0 5902.06 146.440   1
   0   2   0 5764.05 144.591   4
   0   2   0 5835.24 143.469   5
   0   2   0 5870.47 143.119   2
   0   2   0 5772.65 145.147   3
  -1  -2   0 1020.50 24.4149   2
  -1  -2   0 981.289 25.1419   4
  -1  -2   0 1004.14 25.0661   1
  -1  -2   0 1010.84 24.7885   5
   1   2   0 969.335 24.7948   5
   1   2   0 975.836 24.4014   2
   1   2   0 964.433 25.0120   3
   1   2   0 987.771 25.1902   4
   1   2   0 1100.40 25.1041   1
   1   2   0 969.023 24.7686   5
  -2  -2   0 772.725 19.6195   3
  -2  -2   0 758.592 19.6440   5
  -2  -2   0 776.766 20.0471   4
  -2  -2   0 762.021 19.6628   5
  -2  -2   0 778.375 19.4686   2
   2   2   0 769.174 19.4696   2
   2   2   0 731.582 19.9891   4
   2   2   0 740.541 19.8178   1
   2   2   0 761.039 19.7192   5
   2   2   0 772.309 19.6479   5
   2   2   0 780.729 19.6036   3
  -3  -2   0 2059.78 50.8303   3
  -3  -2   0 2138.76 51.5665   1
  -3  -2   0 2078.46 51.5993   4
  -3  -2   0 1864.79 51.1189   5
  -3  -2   0 2038.04 51.2054   5
  -3  -2   0 2041.89 51.1470   2
   3   2   0 2078.20 51.2187   2
   3   2   0 2133.72 50.8296   3
   3   2   0 2118.84 51.4752   1
   3   2   0 2046.36 51.3117   5
   3   2   0 2104.37 51.2108   5
   3   2   0 1947.66 52.7592   4
  -4  -2   0 2955.10 72.5800   5
  -4  -2   0 2925.56 72.8481   4
  -4  -2   0 2922.58 72.5194   5
  -4  -2   0 2958.54 71.7436   3
  -4  -2   0 2901.35 72.5572   2
   4   2   0 2877.19 72.9159   4
   4   2   0 2978.47 72.6888   2
   4   2   0 3028.63 72.8643   1
   4   2   0 2648.18 71.5367   3
   4   2   0 2940.86 72.4345   5
   4   2   0 2918.02 72.5580   5
  -5  -2   0 72.9908 4.62962   2
  -5  -2   0 66.6974 3.24098   3
  -5  -2   0 69.2413 4.27169   5
  -5  -2   0 70.1228 4.26274   1
  -5  -2   0 63.5113 4.56466   4
  -5  -2   0 69.3950 4.11405   5
   5   2   0 70.4453 4.00758   5
   5   2   0 64.7068 3.32514   3
   5   2   0 72.2670 4.18319   5
   5   2   0 65.3481 4.06224   4
   5   2   0 70.6152 4.33132   2
   5   2   0 61.1478 4.23719   1
  -6  -2   0 189.435 8.20177   5
  -6  -2   0 180.081 8.02667   1
  -6  -2   0 176.935 8.44170   4
  -6  -2   0 198.681 8.07842   5
   6   2   0 188.250 8.09884   4
   6   2   0 193.799 6.57683   3
   6   2   0 192.589 7.97372   5
   6   2   0 179.472 7.80418   5
   6   2   0 195.360 8.47602   2
  -7  -2   0 0.34715 1.67078   5
  -7  -2   0 0.52840 1.61220   1
  -7  -2   0 4.48222 2.64756   5
   7   2   0 1.72055 2.11960   2
   7   2   0 2.33292 1.86413   4
   7   2   0 0.70554 1.64131   3
   7   2   0 1.22921 3.20293   5
  -8  -2   0 262.826 11.8667   5
  -8  -2   0 264.366 11.4147   1
   8   2   0 261.622 11.8644   2
   8   2   0 269.955 11.4485   4
  -9  -2   0 87.3997 7.84189   1
  -9  -2   0 84.3637 8.58414   5
   9   2   0 70.7466 7.70332   4
   9   2   0 80.3839 8.44791   2
   9  -3   0 -7.0400 3.64383   2
  -9   3   0 2.74383 3.98619   5
   8  -3   0 100.304 8.55234   2
   8  -3   0 80.6239 5.44153   4
  -8   3   0 83.6932 7.28204   5
  -8   3   0 94.5504 7.60865   1
   7  -3   0 49.0686 5.94516   2
   7  -3   0 40.0855 5.31522   5
   7  -3   0 49.4214 4.02164   4
  -7   3   0 44.4114 6.39860   5
  -7   3   0 40.7461 5.13526   1
  -7   3   0 42.0679 4.85126   4
  -7   3   0 45.9759 4.97354   5
  -7   3   0 47.0514 3.12237   3
   6  -3   0 -0.0080 1.62340   2
   6  -3   0 0.16838 1.03395   4
   6  -3   0 1.11990 1.59957   3
   6  -3   0 -1.6342 1.67185   5
  -6   3   0 -1.3695 2.02514   5
  -6   3   0 0.80603 1.29284   5
  -6   3   0 -0.6750 1.61006   1
  -6   3   0 2.31775 1.50526   4
  -6   3   0 0.05923 1.09647   3
   5  -3   0 47.4628 3.15647   3
   5  -3   0 44.4037 2.73942   4
   5  -3   0 42.2346 4.27646   2
   5  -3   0 44.1005 3.23984   5
  -5   3   0 47.9875 3.08961   4
  -5   3   0 47.5400 3.51849   5
  -5   3   0 44.8299 3.66968   5
  -5   3   0 45.6412 2.73922   3
  -5   3   0 50.0374 4.14952   1
   4  -3   0 12.0892 2.25456   1
   4  -3   0 6.47550 1.68956   2
   4  -3   0 5.54247 1.34762   4
   4  -3   0 9.06206 1.60772   5
   4  -3   0 7.57856 1.78921   5
   4  -3   0 6.77753 1.80440   3
  -4   3   0 9.91817 1.59896   4
  -4   3   0 6.12671 1.57594   2
  -4   3   0 5.70452 1.44963   1
  -4   3   0 9.07801 1.98846   5
  -4   3   0 8.08539 1.78251   5
  -4   3   0 8.30807 1.54333   3
   3  -3   0 5.45487 0.97019   4
   3  -3   0 6.87600 1.16520   5
   3  -3   0 8.55864 1.29297   5
   3  -3   0 6.48648 2.07066   2
   3  -3   0 6.01392 1.52737   3
  -3   3   0 7.14858 1.76314   1
  -3   3   0 7.36134 1.13516   4
  -3   3   0 4.92808 1.33529   5
  -3   3   0 6.20046 1.81803   2
  -3   3   0 8.21720 1.51430   5
  -3   3   0 6.50476 1.29414   3
   2  -3   0 1848.09 45.2005   5
   2  -3   0 1881.31 45.1151   4
   2  -3   0 1831.23 46.4575   2
   2  -3   0 1897.05 45.1471   5
   2  -3   0 1863.16 45.9236   3
  -2   3   0 1863.45 45.0780   4
  -2   3   0 1846.14 46.4261   2
  -2   3   0 1798.88 45.4653   5
  -2   3   0 1844.24 45.9495   3
  -2   3   0 1817.55 46.4601   1
  -2   3   0 1829.26 45.6158   5
   1  -3   0 1389.46 35.0123   3
   1  -3   0 1417.53 33.9924   5
   1  -3   0 1379.42 34.8359   2
  -1   3   0 1435.77 34.9072   2
  -1   3   0 1387.96 35.0616   3
  -1   3   0 1395.70 34.3083   5
  -1   3   0 1413.15 34.3404   4
  -1   3   0 1330.72 35.1517   1
  -1   3   0 1447.60 34.3954   5
  -1   3   0 1377.24 34.3381   4
   0  -3   0 117.976 3.26680   5
   0  -3   0 115.991 3.42014   2
   0  -3   0 120.874 4.09471   1
   0  -3   0 116.658 3.80696   4
   0  -3   0 120.702 3.29328   5
   0   3   0 117.458 3.49295   5
   0   3   0 109.093 4.09045   3
   0   3   0 117.418 3.47068   5
   0   3   0 123.710 4.13814   1
   0   3   0 115.328 3.42870   2
   0   3   0 114.848 3.80529   4
  -1  -3   0 1065.48 27.2267   4
  -1  -3   0 1091.99 26.6285   5
  -1  -3   0 1031.11 27.1372   1
  -1  -3   0 1095.35 26.6139   5
   1   3   0 1041.89 26.7011   5
   1   3   0 1075.93 26.0411   2
   1   3   0 1072.20 26.7161   5
   1   3   0 1040.62 27.1873   4
   1   3   0 1105.79 27.1816   1
  -2  -3   0 319.916 8.30695   2
  -2  -3   0 307.864 8.70539   5
  -2  -3   0 291.405 8.99103   1
  -2  -3   0 305.495 9.23357   4
  -2  -3   0 306.119 8.71046   5
   2   3   0 333.370 9.16706   1
   2   3   0 298.931 8.77984   5
   2   3   0 315.273 8.98144   3
   2   3   0 299.644 8.72453   5
   2   3   0 301.020 8.26254   2
   2   3   0 286.894 9.15796   4
  -3  -3   0 1336.92 33.8053   5
  -3  -3   0 1229.20 33.9458   1
  -3  -3   0 1314.06 33.7369   5
  -3  -3   0 1333.12 34.3372   4
  -3  -3   0 1350.94 33.4444   2
   3   3   0 1254.14 34.3339   4
   3   3   0 1314.22 33.5526   3
   3   3   0 1302.35 33.8184   5
   3   3   0 1472.88 34.1992   1
   3   3   0 1319.82 33.4224   2
   3   3   0 1318.27 33.7318   5
  -4  -3   0 623.728 17.7552   4
  -4  -3   0 639.387 17.1832   2
  -4  -3   0 618.428 17.2633   5
  -4  -3   0 606.062 17.2070   5
  -4  -3   0 569.484 17.4277   1
   4   3   0 627.047 17.1518   2
   4   3   0 589.465 17.7454   4
   4   3   0 610.715 17.1964   5
   4   3   0 628.065 17.5057   1
   4   3   0 624.731 16.7305   3
  -5  -3   0 310.501 11.2134   4
  -5  -3   0 324.297 11.1484   5
  -5  -3   0 330.676 11.1099   1
  -5  -3   0 325.469 10.8907   2
  -5  -3   0 327.777 10.8592   5
   5   3   0 320.338 10.8089   5
   5   3   0 312.666 10.8743   1
   5   3   0 312.106 10.6432   5
   5   3   0 326.539 10.7661   2
   5   3   0 334.793 9.98478   3
   5   3   0 316.587 11.1726   4
  -6  -3   0 64.0482 5.43238   5
  -6  -3   0 48.5628 5.60744   2
  -6  -3   0 61.4321 4.55650   5
  -6  -3   0 62.9928 4.46390   1
   6   3   0 66.3559 5.03728   5
   6   3   0 71.3995 5.25739   2
   6   3   0 65.9004 4.03973   3
   6   3   0 65.6325 4.80071   5
   6   3   0 67.9077 4.95788   4
  -7  -3   0 0.30617 2.97158   5
  -7  -3   0 -0.1802 1.49033   1
  -7  -3   0 0.32082 1.74663   5
   7   3   0 2.38318 1.70652   3
   7   3   0 0.80601 2.14326   5
   7   3   0 4.63243 2.08267   4
   7   3   0 2.26300 2.11094   2
  -8  -3   0 8.86575 2.94867   5
  -8  -3   0 9.39085 2.66540   1
   8   3   0 7.85543 2.67943   2
   8   3   0 8.30071 2.55338   4
   8   3   0 11.7865 3.66670   5
  -9  -3   0 -0.0650 2.75733   1
  -9  -3   0 0.75270 3.27253   5
   9   3   0 -4.5065 3.10201   2
   9   3   0 -2.8772 2.70047   4
   9  -4   0 15.2427 5.23875   2
  -9   4   0 22.3854 7.52493   1
  -9   4   0 12.7766 4.15903   5
   8  -4   0 2.07663 3.22828   2
  -8   4   0 9.63332 3.29277   5
  -8   4   0 4.78665 3.31721   1
  -7   4   0 18.4767 5.49090   3
  -7   4   0 23.4633 4.72757   1
   6  -4   0 13.0595 3.50878   5
   6  -4   0 3.67640 1.20747   4
   6  -4   0 7.15316 2.46945   2
  -6   4   0 6.10447 1.64468   3
  -6   4   0 7.89042 2.78067   4
  -6   4   0 3.10804 1.72377   5
  -6   4   0 3.04831 1.59950   5
  -6   4   0 6.66862 2.17618   1
   5  -4   0 19.8363 3.71962   2
   5  -4   0 19.1870 2.80537   5
   5  -4   0 20.4151 1.99842   4
   5  -4   0 23.0828 3.05252   3
  -5   4   0 16.8156 2.44106   3
  -5   4   0 24.1046 2.24214   4
  -5   4   0 20.5815 2.79886   5
  -5   4   0 19.1340 3.29462   5
  -5   4   0 19.9235 3.18160   1
   4  -4   0 10.3992 2.32452   3
   4  -4   0 6.21622 1.79783   5
   4  -4   0 8.77066 1.30399   4
   4  -4   0 9.10512 2.54423   2
   4  -4   0 11.4885 1.92997   5
  -4   4   0 8.21546 1.53275   4
  -4   4   0 7.07995 2.42729   1
  -4   4   0 3.90370 1.98257   2
  -4   4   0 8.63072 1.85288   3
  -4   4   0 6.19477 1.85640   5
  -4   4   0 4.61238 1.28349   5
   3  -4   0 101.787 3.55579   5
   3  -4   0 108.124 4.96300   2
   3  -4   0 108.663 4.46742   3
   3  -4   0 106.632 3.50138   5
  -3   4   0 98.1215 4.31802   3
  -3   4   0 106.244 4.97059   1
  -3   4   0 103.109 4.01889   5
  -3   4   0 107.952 4.27001   5
  -3   4   0 103.591 5.07408   2
  -3   4   0 108.008 3.39763   4
   2  -4   0 254.289 6.64202   5
   2  -4   0 255.454 7.96335   3
   2  -4   0 232.586 6.64111   5
   2  -4   0 246.178 8.08875   2
  -2   4   0 261.731 8.23213   2
  -2   4   0 253.105 6.92545   4
  -2   4   0 254.629 6.91028   4
  -2   4   0 258.188 7.39948   5
  -2   4   0 258.721 8.38397   1
  -2   4   0 257.812 7.29836   5
   1  -4   0 109.994 4.06424   2
  -1   4   0 114.262 3.69228   5
  -1   4   0 113.849 4.12097   2
  -1   4   0 115.564 3.78107   4
  -1   4   0 116.788 3.77405   4
  -1   4   0 113.966 3.62953   5
  -1   4   0 111.413 4.47401   1
   0  -4   0 75.0209 2.23352   5
   0  -4   0 70.4302 2.95808   4
   0  -4   0 70.5994 2.19103   5
   0  -4   0 67.9973 2.43385   2
   0   4   0 69.0198 2.94391   4
   0   4   0 69.1311 2.45668   2
   0   4   0 70.3943 2.56361   5
   0   4   0 64.1026 3.12580   1
  -1  -4   0 178.415 5.94372   4
  -1  -4   0 179.206 5.23886   5
  -1  -4   0 174.260 5.17540   5
   1   4   0 172.863 5.92641   4
   1   4   0 177.474 5.93205   1
   1   4   0 177.342 5.44793   5
  -2  -4   0 24.3031 1.33069   2
  -2  -4   0 22.2276 2.01259   1
  -2  -4   0 25.9932 1.77988   5
   2   4   0 27.3105 2.09397   3
   2   4   0 24.8229 2.02866   1
   2   4   0 23.9258 1.35505   2
   2   4   0 24.8514 1.88120   5
   2   4   0 25.7558 2.35357   4
   2   4   0 27.4351 2.09491   5
  -3  -4   0 0.61826 0.74835   5
  -3  -4   0 0.63219 0.70382   2
  -3  -4   0 1.55854 0.83873   5
  -3  -4   0 5.16564 1.86369   4
  -3  -4   0 0.53894 0.67723   1
   3   4   0 -0.1078 0.74836   5
   3   4   0 1.36847 0.75348   2
   3   4   0 0.94044 0.80366   1
   3   4   0 1.31314 0.90031   4
   3   4   0 -0.3290 0.77197   5
   3   4   0 0.01157 0.97559   3
  -4  -4   0 359.604 11.3379   1
  -4  -4   0 352.939 10.9048   5
  -4  -4   0 349.139 10.5202   2
  -4  -4   0 349.404 10.8741   5
   4   4   0 348.355 11.7183   4
   4   4   0 343.965 11.0615   5
   4   4   0 336.198 10.8223   5
   4   4   0 323.264 10.6140   2
   4   4   0 359.408 11.2496   1
   4   4   0 363.536 10.8603   3
  -5  -4   0 290.641 10.2780   5
  -5  -4   0 294.015 10.2427   5
  -5  -4   0 265.437 10.4956   4
  -5  -4   0 298.730 9.96703   2
  -5  -4   0 301.424 10.5930   1
   5   4   0 290.612 10.1856   5
   5   4   0 336.786 11.9028   1
   5   4   0 292.043 9.59521   3
   5   4   0 286.691 10.7216   4
   5   4   0 298.862 10.3978   5
   5   4   0 288.660 9.86553   2
  -6  -4   0 2.81718 2.00472   2
  -6  -4   0 2.76519 1.68373   5
  -6  -4   0 0.21623 2.24133   5
   6   4   0 3.87032 1.99351   4
   6   4   0 10.6566 3.45215   5
   6   4   0 2.33940 1.97405   5
   6   4   0 1.72559 1.52297   2
   6   4   0 0.65527 1.67863   3
  -7  -4   0 -1.2124 1.55359   1
  -7  -4   0 -1.3009 1.96726   5
   7   4   0 -1.6641 1.97695   2
   7   4   0 -1.8940 2.34535   3
   7   4   0 -0.9995 2.23010   5
   7   4   0 1.13079 1.85439   4
  -8  -4   0 81.5004 6.59606   1
  -8  -4   0 91.2131 7.79079   5
   8   4   0 77.9676 7.29339   4
   8   4   0 75.1757 8.27113   5
   8   4   0 89.5100 7.01772   2
  -9  -4   0 2.95124 3.77688   5
  -9  -4   0 2.15506 2.96295   1
   9   4   0 4.69493 3.30354   4
   9   4   0 2.00891 3.56157   2
   8  -5   0 28.0507 8.27934   2
  -8   5   0 22.2614 6.89018   1
  -8   5   0 12.5793 3.17813   5
   7  -5   0 94.8280 8.11262   2
  -7   5   0 102.549 6.77921   5
  -7   5   0 99.3000 5.19748   3
  -7   5   0 106.432 7.69905   1
   6  -5   0 5.63174 1.74954   5
   6  -5   0 6.22855 2.70893   2
  -6   5   0 1.66125 1.60763   3
  -6   5   0 4.24120 2.08895   1
  -6   5   0 3.05898 1.86438   5
   5  -5   0 4.75418 1.94404   2
   5  -5   0 6.52559 1.40722   5
  -5   5   0 9.02253 2.65269   3
  -5   5   0 5.71365 1.60238   5
  -5   5   0 5.70958 1.80992   1
   4  -5   0 29.4035 3.48566   2
   4  -5   0 31.8671 2.12243   5
  -4   5   0 29.6996 4.70825   2
  -4   5   0 24.6668 2.52668   5
  -4   5   0 27.3727 2.73499   3
  -4   5   0 27.4251 3.44677   1
   3  -5   0 3.36390 1.37107   2
  -3   5   0 4.70990 1.24878   5
  -3   5   0 4.52496 1.35583   3
  -3   5   0 8.11148 2.90546   2
  -3   5   0 4.39786 1.07890   5
  -3   5   0 4.67249 1.40063   1
   2  -5   0 1.37331 0.89873   2
  -2   5   0 1.05442 0.66529   5
  -2   5   0 0.89556 0.92950   2
  -2   5   0 0.76608 0.56942   4
  -2   5   0 1.17889 0.61577   4
  -2   5   0 1.92701 0.69673   5
  -2   5   0 2.11652 1.02835   1
  -2   5   0 1.67023 1.05750   3
  -2   5   0 0.63575 0.79350   1
   1  -5   0 166.999 5.52715   2
  -1   5   0 171.755 5.35309   4
  -1   5   0 164.066 5.17247   5
  -1   5   0 159.534 6.16096   1
  -1   5   0 150.246 5.49819   2
  -1   5   0 172.790 5.39741   4
  -1   5   0 166.798 6.17713   3
  -1   5   0 165.413 5.09219   5
   0  -5   0 151.336 4.58915   2
   0  -5   0 149.063 5.67927   1
   0   5   0 143.792 5.77993   3
   0   5   0 152.352 4.83663   5
   0   5   0 150.085 4.76274   5
   0   5   0 150.398 4.60437   2
   0   5   0 148.469 5.30464   4
   0   5   0 151.132 5.68807   1
  -1  -5   0 9.14150 1.61213   1
  -1  -5   0 12.0630 1.21014   5
  -1  -5   0 11.1239 1.24717   5
  -1  -5   0 12.1365 1.81726   4
   1   5   0 10.8295 1.44063   5
   1   5   0 9.00037 1.83347   4
   1   5   0 10.2608 1.38932   5
   1   5   0 10.1400 1.74760   1
   1   5   0 10.3902 1.76729   3
  -2  -5   0 5.21001 1.57721   1
  -2  -5   0 4.87063 1.17690   5
  -2  -5   0 5.87703 1.88261   4
  -2  -5   0 2.31358 0.83865   5
   2   5   0 2.36672 0.82297   2
   2   5   0 1.66831 0.72506   5
   2   5   0 1.61389 0.94549   4
   2   5   0 2.59613 0.95783   1
   2   5   0 6.03560 1.53135   5
   2   5   0 1.87840 1.11983   3
  -3  -5   0 13.5730 1.96204   1
  -3  -5   0 12.0212 2.47684   4
  -3  -5   0 14.5906 1.52141   2
  -3  -5   0 15.9906 2.11407   5
   3   5   0 18.4328 2.31867   1
   3   5   0 13.3518 2.06570   5
   3   5   0 12.9891 1.62175   2
   3   5   0 14.9624 2.41478   4
   3   5   0 11.1668 1.95507   5
   3   5   0 18.4169 2.64631   3
  -4  -5   0 2.57089 1.17516   2
  -4  -5   0 1.36002 1.40132   4
  -4  -5   0 2.62766 1.17223   5
  -4  -5   0 1.71547 1.07221   1
  -4  -5   0 7.83054 2.57363   5
   4   5   0 2.49919 1.20895   4
   4   5   0 2.93080 1.30203   1
   4   5   0 4.92178 1.52156   3
   4   5   0 3.05599 1.34605   5
   4   5   0 1.67301 1.00037   2
   4   5   0 2.63328 1.19399   5
  -5  -5   0 64.8767 4.31628   2
  -5  -5   0 66.9637 4.90162   5
  -5  -5   0 61.8525 4.35527   5
  -5  -5   0 63.3072 4.50632   1
   5   5   0 56.3268 4.50224   5
   5   5   0 56.0350 3.87623   2
   5   5   0 62.9961 4.64250   5
   5   5   0 58.5744 4.57232   3
   5   5   0 63.7925 4.97083   4
  -6  -5   0 3.01086 1.93645   5
  -6  -5   0 3.82088 1.64101   1
  -6  -5   0 -0.4242 2.31821   2
   6   5   0 1.86046 2.01968   5
   6   5   0 -2.6551 1.51432   4
   6   5   0 3.24823 2.06327   3
   6   5   0 -0.5558 1.54598   2
   6   5   0 0.64166 2.65878   5
  -7  -5   0 57.3951 5.55971   1
  -7  -5   0 53.5857 6.10663   5
   7   5   0 58.0822 6.72004   5
   7   5   0 44.6775 5.49667   2
   7   5   0 54.3658 6.02416   4
   7   5   0 49.0723 5.93774   3
  -8  -5   0 3.91789 3.29939   5
   8   5   0 9.56241 3.46149   4
   8   5   0 17.0743 5.92449   2
   8   5   0 9.60340 3.75215   5
   8   5   0 6.87993 2.76608   3
  -9  -5   0 59.9027 8.06699   1
   9   5   0 49.1264 8.28570   4
   9   5   0 78.1663 9.21706   2
   8  -6   0 9.12431 4.37593   2
  -8   6   0 33.9841 7.22091   5
  -8   6   0 15.0456 3.69334   1
   7  -6   0 5.88706 3.39713   2
  -7   6   0 4.36672 2.45942   3
  -7   6   0 3.05061 2.30663   5
  -7   6   0 18.4390 6.37986   1
   6  -6   0 1.52827 2.70786   2
  -6   6   0 4.99627 2.03263   5
  -6   6   0 6.48014 2.15795   3
  -6   6   0 5.00500 2.29860   1
  -6   6   0 7.87365 2.73508   5
   5  -6   0 99.9687 6.73930   2
  -5   6   0 101.241 5.78342   5
  -5   6   0 100.297 6.41625   1
  -5   6   0 104.164 5.25903   5
  -5   6   0 107.182 5.50441   3
   4  -6   0 0.07898 1.56183   2
  -4   6   0 1.02576 1.11010   5
  -4   6   0 1.60934 1.35573   3
  -4   6   0 0.62582 1.35743   5
  -4   6   0 -0.0004 1.47081   1
   3  -6   0 103.736 5.48546   2
  -3   6   0 107.603 4.66591   5
  -3   6   0 98.9248 5.09962   3
  -3   6   0 102.832 6.12965   2
  -3   6   0 114.093 5.90936   1
  -3   6   0 109.865 4.48253   5
   2  -6   0 17.1781 2.39567   2
  -2   6   0 15.5749 1.75862   5
  -2   6   0 16.5768 2.56318   1
  -2   6   0 17.4362 1.97156   5
  -2   6   0 17.2580 2.63151   1
  -2   6   0 17.9061 2.89265   2
  -2   6   0 16.2239 1.73240   4
  -2   6   0 21.9738 2.81023   3
  -2   6   0 17.6191 1.66272   4
   1  -6   0 35.4764 2.39053   2
  -1   6   0 31.5659 2.12526   5
  -1   6   0 33.7045 2.10871   5
  -1   6   0 33.7081 2.86573   3
  -1   6   0 33.4913 2.37233   4
  -1   6   0 32.4749 2.40603   4
  -1   6   0 32.3202 3.17028   1
  -1   6   0 33.6422 2.56384   2
   0  -6   0 28.4570 2.61493   1
   0   6   0 30.3060 2.72352   3
   0   6   0 30.6638 2.08486   5
   0   6   0 30.2417 2.01133   5
   0   6   0 25.0146 2.82748   4
   0   6   0 31.4736 1.95365   2
   0   6   0 31.7442 2.67767   1
  -1  -6   0 39.5364 2.00100   5
  -1  -6   0 36.8950 2.95753   4
  -1  -6   0 39.1317 1.99256   5
  -1  -6   0 36.3115 2.80198   1
   1   6   0 38.7106 3.18128   3
   1   6   0 37.9466 3.01365   4
   1   6   0 37.9305 2.44439   5
   1   6   0 37.1469 2.40249   5
  -2  -6   0 31.7305 2.20041   5
  -2  -6   0 31.3867 2.34300   5
  -2  -6   0 27.3485 3.17748   4
   2   6   0 31.3849 2.55653   5
   2   6   0 25.5522 2.97126   3
   2   6   0 35.0527 2.79441   1
   2   6   0 31.2278 2.91741   4
   2   6   0 32.8724 2.56877   5
   2   6   0 33.8268 2.96163   3
  -3  -6   0 1.03644 0.90986   5
  -3  -6   0 0.82120 0.65029   2
  -3  -6   0 1.25762 1.03935   5
  -3  -6   0 1.47359 0.99914   1
  -3  -6   0 0.44038 1.46927   4
   3   6   0 1.02801 0.75413   5
   3   6   0 1.11822 1.07041   5
   3   6   0 2.48743 1.20638   1
   3   6   0 -0.2538 1.62623   3
   3   6   0 1.00030 0.61585   2
   3   6   0 0.64271 1.04563   4
  -4  -6   0 2.24166 1.02510   1
  -4  -6   0 3.70706 1.47058   5
  -4  -6   0 7.00429 2.06153   2
  -4  -6   0 -0.8775 1.68705   5
   4   6   0 1.80803 2.04416   3
   4   6   0 2.98356 1.55165   5
   4   6   0 2.56205 1.53677   4
   4   6   0 3.08286 1.33310   5
   4   6   0 4.01445 1.17901   2
  -5  -6   0 45.4161 3.72457   2
  -5  -6   0 41.3202 4.18850   1
  -5  -6   0 40.2822 3.82444   5
   5   6   0 39.9450 4.28371   5
   5   6   0 44.2616 4.58316   5
   5   6   0 26.0914 4.73217   3
   5   6   0 35.0916 4.61846   4
   5   6   0 36.7371 3.26895   2
  -6  -6   0 1.91047 1.83708   1
  -6  -6   0 1.11219 2.18986   2
  -6  -6   0 -0.2969 1.91740   5
   6   6   0 1.82736 2.21528   5
   6   6   0 -1.9624 1.99471   5
   6   6   0 -2.1369 1.80455   4
   6   6   0 -2.5063 1.53202   2
  -7  -6   0 1.98280 2.21993   1
   7   6   0 -0.6766 2.10048   4
   7   6   0 3.98368 2.73672   5
   7   6   0 6.37607 4.41475   5
   7   6   0 3.89877 2.64373   3
   7   6   0 -1.2068 2.00364   2
  -8  -6   0 17.8620 5.91031   1
  -8  -6   0 8.54694 3.85710   5
   8   6   0 17.8468 3.78365   3
   8   6   0 30.2715 6.72481   4
   8   6   0 11.5420 3.18804   2
   8   6   0 14.5480 4.43492   5
  -9  -6   0 8.22184 3.87356   1
   9   6   0 11.1541 4.50238   4
   9   6   0 4.47973 4.25844   2
   9   6   0 9.46144 6.52253   5
   7  -7   0 5.96954 3.98854   2
  -7   7   0 4.21192 3.48269   1
  -7   7   0 -0.3066 2.75359   5
   6  -7   0 5.18822 2.95664   2
  -6   7   0 6.84990 2.82335   1
  -6   7   0 7.60400 2.65294   3
  -6   7   0 11.7290 3.91882   5
   5  -7   0 92.0914 6.88982   2
  -5   7   0 98.8675 5.77645   3
  -5   7   0 94.3689 6.89928   1
  -5   7   0 96.1094 5.40821   5
  -5   7   0 92.2356 6.16918   5
   4  -7   0 27.0247 4.28645   2
  -4   7   0 26.2671 3.93277   5
  -4   7   0 31.4307 3.62212   3
  -4   7   0 35.5543 4.57767   1
  -4   7   0 35.0483 3.28534   5
   3  -7   0 615.171 18.3330   2
  -3   7   0 614.879 18.3716   3
  -3   7   0 619.943 19.0952   1
  -3   7   0 606.661 18.5350   2
  -3   7   0 605.588 17.1849   5
  -3   7   0 610.386 16.9373   5
   2  -7   0 74.5522 4.25502   2
  -2   7   0 76.2994 4.80092   3
  -2   7   0 75.7678 3.50075   4
  -2   7   0 67.5940 3.32710   4
  -2   7   0 66.0395 4.81590   2
  -2   7   0 69.9660 3.64776   5
  -2   7   0 68.8637 3.40596   5
  -1   7   0 655.573 17.8041   2
  -1   7   0 658.508 17.6020   5
  -1   7   0 656.086 19.4017   1
  -1   7   0 662.139 17.4401   5
  -1   7   0 641.554 17.7645   4
  -1   7   0 639.263 19.1687   3
   0  -7   0 9.31573 2.43168   1
   0   7   0 9.68266 1.69848   5
   0   7   0 9.42039 2.53465   3
   0   7   0 7.27130 1.66793   5
   0   7   0 7.03753 2.49068   1
   0   7   0 7.93306 2.35852   4
   0   7   0 8.75931 1.72091   2
  -1  -7   0 55.4651 2.47004   5
  -1  -7   0 48.4865 4.03339   4
  -1  -7   0 50.4277 3.57068   1
  -1  -7   0 53.9985 2.42958   5
   1   7   0 54.8612 4.21196   3
   1   7   0 50.7650 3.82077   3
   1   7   0 53.9443 3.20259   5
   1   7   0 53.4215 3.08753   5
   1   7   0 51.3469 3.74718   4
   1   7   0 45.5545 3.85075   1
  -2  -7   0 47.8737 4.23223   4
  -2  -7   0 48.9939 3.00698   5
  -2  -7   0 55.1839 3.90652   1
  -2  -7   0 58.1124 3.02651   5
   2   7   0 55.3575 3.51500   5
   2   7   0 46.3809 3.93859   1
   2   7   0 57.1074 4.08245   3
   2   7   0 55.9567 3.53220   5
   2   7   0 51.3135 4.11632   4
   2   7   0 43.1873 4.29794   3
  -3  -7   0 29.4917 2.97852   5
  -3  -7   0 33.8844 3.34898   1
   3   7   0 32.9303 3.18999   5
   3   7   0 33.6831 3.40970   3
   3   7   0 35.4601 4.29398   3
   3   7   0 30.9421 3.67151   4
   3   7   0 32.6769 3.35029   5
  -4  -7   0 134.750 4.67470   2
  -4  -7   0 129.898 6.01568   5
   4   7   0 140.577 7.37475   4
   4   7   0 137.181 6.76802   3
   4   7   0 139.306 6.52313   5
   4   7   0 132.128 4.64473   2
   4   7   0 129.954 6.56057   5
  -5  -7   0 36.8413 3.63375   2
  -5  -7   0 44.5187 4.36772   5
  -5  -7   0 43.7594 4.19798   1
   5   7   0 44.2438 4.67034   3
   5   7   0 39.5071 5.17966   4
   5   7   0 44.6577 4.84898   5
   5   7   0 34.3654 5.21258   5
   5   7   0 38.9709 3.28839   2
  -6  -7   0 -0.2650 1.77614   1
  -6  -7   0 -2.8084 2.20372   2
  -6  -7   0 -0.1054 2.06937   5
   6   7   0 3.75273 2.52712   5
   6   7   0 2.98228 1.78240   2
   6   7   0 -0.2501 2.33530   3
   6   7   0 -0.6294 2.40760   5
   6   7   0 -1.9952 2.13314   4
  -7  -7   0 7.18064 2.92486   1
  -7  -7   0 0.68893 3.17882   5
   7   7   0 5.00636 2.30883   2
   7   7   0 7.45704 3.20063   3
   7   7   0 2.20973 2.47699   4
   7   7   0 0.19742 2.76362   5
  -8  -7   0 4.42424 3.09644   1
   8   7   0 10.1431 3.98925   3
   8   7   0 11.2582 4.47846   5
   8   7   0 10.1273 3.59661   2
   8   7   0 5.13731 3.25340   4
  -9  -7   0 -4.5679 3.94427   1
   9   7   0 -1.9849 4.41256   4
   9   7   0 -6.0533 5.01931   5
   9   7   0 5.20658 4.80012   2
   7  -8   0 41.8519 10.4530   2
   6  -8   0 44.7124 7.75399   2
  -6   8   0 40.7921 5.00540   5
  -6   8   0 49.1868 5.85137   3
  -6   8   0 37.4243 6.31433   1
   5  -8   0 6.54771 3.09465   2
  -5   8   0 6.72254 1.88567   5
  -5   8   0 9.79332 3.04705   1
  -5   8   0 7.61442 2.95763   5
  -5   8   0 15.3761 4.46027   3
   4  -8   0 31.1100 5.35597   2
  -4   8   0 24.4899 3.10165   5
  -4   8   0 24.8359 4.74755   1
  -4   8   0 18.3213 3.96208   5
  -4   8   0 21.6322 4.25294   3
   3  -8   0 2.12091 1.84610   2
  -3   8   0 1.24912 2.89949   2
  -3   8   0 -0.6058 1.12473   5
  -3   8   0 2.76203 1.88753   3
  -3   8   0 -0.6969 1.27478   5
  -3   8   0 2.62393 1.92467   1
   2  -8   0 23.8652 3.48114   2
  -2   8   0 25.5097 2.83212   5
  -2   8   0 23.1845 2.73582   4
  -2   8   0 30.0522 4.14582   3
  -2   8   0 19.8880 4.55865   2
  -2   8   0 25.2094 2.52976   5
  -2   8   0 27.0029 2.82000   4
   1  -8   0 2.32425 1.13283   2
  -1   8   0 0.92856 1.06908   5
  -1   8   0 1.14279 0.99878   5
  -1   8   0 0.28674 1.57201   2
  -1   8   0 1.96438 1.68131   3
  -1   8   0 0.10623 1.36455   4
  -1   8   0 -0.2986 1.31400   4
   0  -8   0 51.4588 4.14145   1
   0   8   0 58.2954 3.23302   5
   0   8   0 54.4330 3.25427   5
   0   8   0 54.7725 4.03602   4
   0   8   0 52.7338 4.50243   3
   0   8   0 54.7923 2.96962   2
  -1  -8   0 41.8565 3.77123   1
   1   8   0 37.9968 3.56458   4
   1   8   0 41.8055 3.06205   5
   1   8   0 40.9445 3.14882   5
   1   8   0 40.9554 3.95194   3
  -2  -8   0 12.8839 4.33299   4
  -2  -8   0 16.4593 2.39522   5
  -2  -8   0 12.9934 3.00028   1
   2   8   0 11.1024 2.78028   5
   2   8   0 12.3317 3.32885   4
   2   8   0 13.6007 2.80833   5
   2   8   0 13.7859 3.05646   3
  -3  -8   0 106.695 6.09438   1
  -3  -8   0 111.131 5.18292   5
   3   8   0 119.783 5.92845   5
   3   8   0 113.514 6.45917   3
   3   8   0 117.129 6.85414   4
   3   8   0 117.481 5.83638   5
  -4  -8   0 24.1316 3.68597   5
  -4  -8   0 22.3636 3.61425   1
   4   8   0 17.6616 3.83313   5
   4   8   0 26.6535 4.56303   4
   4   8   0 20.7841 3.89588   3
   4   8   0 26.4584 3.92889   5
  -5  -8   0 85.3930 5.67813   5
  -5  -8   0 80.2445 5.93522   1
  -5  -8   0 85.5080 4.21219   2
   5   8   0 91.4374 6.85126   5
   5   8   0 92.6176 4.13616   2
   5   8   0 94.5943 6.73319   5
   5   8   0 84.8637 7.01621   4
   5   8   0 91.3948 6.48933   3
  -6  -8   0 23.0629 6.24673   5
  -6  -8   0 20.6782 4.53444   1
   6   8   0 15.5314 4.84351   3
   6   8   0 14.5901 3.51728   5
   6   8   0 9.82362 3.24274   4
   6   8   0 15.1645 3.78612   2
  -7  -8   0 2.94337 2.41992   1
   7   8   0 -1.5101 3.35238   3
   7   8   0 3.34357 3.66506   5
   7   8   0 -1.5569 2.81242   4
   7   8   0 -1.6802 2.39995   2
  -8  -8   0 2.50830 3.18340   1
   8   8   0 -6.3849 4.44025   5
   8   8   0 -1.7189 3.72040   4
   8   8   0 0.57663 3.59187   2
   8   8   0 6.22304 3.99890   3
   6  -9   0 2.17564 4.37851   2
  -6   9   0 -3.0603 3.81128   3
  -6   9   0 -2.6869 3.37443   1
  -6   9   0 0.37262 2.52253   5
   5  -9   0 3.58869 3.53874   2
  -5   9   0 3.24021 1.77765   5
  -5   9   0 -1.0869 2.63024   1
  -5   9   0 4.02716 2.99757   3
   4  -9   0 59.5295 6.40782   2
  -4   9   0 61.2076 6.03869   3
  -4   9   0 58.4360 6.76802   1
  -4   9   0 57.5163 4.15844   5
  -4   9   0 51.0289 5.01755   5
   3  -9   0 24.6917 4.69139   2
  -3   9   0 37.0082 4.92466   3
  -3   9   0 21.9609 3.63798   5
  -3   9   0 39.2847 5.50802   1
  -3   9   0 29.7286 3.23947   5
   2  -9   0 -0.2778 1.77961   2
  -2   9   0 0.33905 1.27526   5
  -2   9   0 -0.3140 2.10576   3
  -2   9   0 1.10070 1.40309   4
  -2   9   0 1.82862 2.72539   2
  -2   9   0 3.61454 2.64473   4
  -1   9   0 147.132 5.77173   5
  -1   9   0 147.013 5.98191   5
  -1   9   0 149.599 6.45299   2
  -1   9   0 145.395 6.27874   4
  -1   9   0 149.040 6.45948   4
  -1   9   0 153.337 7.95887   3
   0   9   0 57.9768 2.91395   2
   0   9   0 62.1559 4.75517   4
   0   9   0 63.5065 3.82109   5
   0   9   0 57.9015 3.25351   2
   0   9   0 64.7594 3.88412   5
   0   9   0 56.5529 4.89644   3
  -1  -9   0 43.7735 4.43761   1
   1   9   0 45.3623 4.55261   4
   1   9   0 47.9142 3.80316   5
   1   9   0 43.1671 4.79379   3
   1   9   0 51.6215 3.77252   5
  -2  -9   0 133.425 7.17047   1
   2   9   0 140.337 6.38375   5
   2   9   0 128.542 6.20136   5
   2   9   0 130.385 7.35052   4
   2   9   0 135.547 7.49070   3
  -3  -9   0 84.8504 4.79556   5
  -3  -9   0 78.7071 5.88843   1
   3   9   0 79.1898 5.22523   5
   3   9   0 79.5564 6.01446   4
   3   9   0 74.5481 5.45927   5
   3   9   0 74.3771 5.80350   3
  -4  -9   0 2.07974 2.22518   5
  -4  -9   0 6.36672 2.29856   1
   4   9   0 1.55220 1.96350   5
   4   9   0 0.85346 2.20100   4
   4   9   0 5.15924 2.64770   3
   4   9   0 2.72291 2.07518   5
  -5  -9   0 32.0608 4.64997   1
  -5  -9   0 31.0655 6.82984   5
   5   9   0 19.4553 4.47988   5
   5   9   0 34.5521 5.58476   3
   5   9   0 28.2952 5.70698   4
   5   9   0 34.8189 5.56356   5
  -6  -9   0 17.3438 4.79838   1
   6   9   0 11.0412 3.63660   2
   6   9   0 23.3433 6.05173   3
   6   9   0 9.45989 3.40044   4
   6   9   0 14.7819 3.68068   5
  -7  -9   0 55.4185 7.20858   1
   7   9   0 53.1991 7.91921   4
   7   9   0 52.4339 9.09838   5
   7   9   0 57.9298 7.53716   3
  -8  -9   0 36.6354 8.03566   1
   8   9   0 53.5125 12.1373   5
   8   9   0 38.7199 9.27211   4
   8   9   0 52.4844 9.16875   3
   5 -10   0 21.6546 4.48478   2
  -5  10   0 21.9459 4.38053   5
  -5  10   0 31.6692 7.39312   1
  -5  10   0 25.9645 6.96296   3
   4 -10   0 5.06772 3.09763   2
  -4  10   0 1.58703 3.16819   3
  -4  10   0 3.31887 3.36846   1
  -4  10   0 -1.4043 1.60675   5
   3 -10   0 75.8266 6.55789   2
  -3  10   0 66.6003 5.17907   5
  -3  10   0 77.1426 6.99359   3
  -3  10   0 72.0053 4.85132   5
  -3  10   0 87.0183 7.77930   1
  -2  10   0 16.8366 3.80450   4
  -2  10   0 20.9170 5.67395   3
  -2  10   0 21.7229 3.84998   5
  -2  10   0 15.2126 3.07694   5
  -2  10   0 17.4534 5.21074   1
  -1  10   0 5.44236 2.06591   4
  -1  10   0 3.80186 2.40209   3
  -1  10   0 1.26336 1.32083   5
  -1  10   0 2.85159 2.21558   2
  -1  10   0 1.53910 1.85791   4
  -1  10   0 3.08509 1.55966   5
   0  10   0 113.535 7.55037   3
   0  10   0 108.008 6.44184   4
   0  10   0 100.976 5.24135   5
   0  10   0 96.1992 5.28976   5
  -1 -10   0 10.8456 2.45122   1
   1  10   0 19.0185 4.61715   4
   1  10   0 15.4436 3.37294   5
   1  10   0 15.8250 3.22908   5
   1  10   0 15.4067 4.58691   3
  -2 -10   0 154.411 7.92465   1
   2  10   0 145.742 6.97153   5
   2  10   0 146.840 8.34619   3
   2  10   0 156.717 8.22733   4
   2  10   0 144.432 7.02274   5
  -3 -10   0 16.4092 4.16776   5
  -3 -10   0 13.8582 4.15000   1
   3  10   0 18.6729 5.33591   4
   3  10   0 10.8448 2.75136   5
   3  10   0 15.8666 4.60292   3
   3  10   0 19.6975 4.23975   5
  -4 -10   0 1.46363 2.54181   1
   4  10   0 -2.4043 2.55107   4
   4  10   0 0.36028 2.33110   5
   4  10   0 0.50800 2.79979   3
   4  10   0 -1.7063 3.57968   5
  -5 -10   0 18.3556 5.95120   1
   5  10   0 21.2393 6.33395   5
   5  10   0 24.5420 6.31110   4
   5  10   0 31.0887 6.18740   3
  -6 -10   0 67.9459 7.51088   1
   6  10   0 54.8808 8.24001   3
   6  10   0 45.2717 7.84597   4
   6  10   0 56.6254 8.51975   5
  -7 -10   0 9.77263 3.72684   1
   7  10   0 6.49283 4.55008   5
   7  10   0 2.11473 3.79030   4
   7  10   0 8.46204 4.74685   3
   4 -11   0 1.83162 3.49005   2
  -4  11   0 4.52341 4.06040   3
  -4  11   0 6.45625 2.46777   5
  -4  11   0 8.13718 4.16782   1
   3 -11   0 -5.8613 2.80135   2
  -3  11   0 0.23674 1.85167   5
  -3  11   0 0.77113 3.90789   3
  -3  11   0 3.60354 3.23590   1
  -2  11   0 21.1466 4.84918   5
  -2  11   0 7.78569 2.65156   4
  -2  11   0 11.1690 3.30298   1
  -2  11   0 5.39812 3.42676   3
  -2  11   0 12.1115 3.66806   5
  -1  11   0 3.54412 2.24798   5
  -1  11   0 2.76202 1.78771   5
  -1  11   0 1.98615 1.60734   2
  -1  11   0 6.41041 3.40365   3
  -1  11   0 1.21137 2.47840   4
   0  11   0 4.22922 2.91537   4
   0  11   0 5.79666 1.78651   5
   0  11   0 2.20383 2.85933   3
   0  11   0 6.80129 2.73735   5
  -1 -11   0 -2.8279 1.93200   1
   1  11   0 1.90085 2.81929   3
   1  11   0 2.84768 2.73743   4
   1  11   0 2.81817 1.97531   5
   1  11   0 -0.0607 1.98446   5
  -2 -11   0 -2.0164 2.08735   1
   2  11   0 -0.7553 1.89113   5
   2  11   0 2.73426 2.93138   3
   2  11   0 4.31033 2.48554   5
   2  11   0 -1.2265 2.64080   4
  -3 -11   0 0.89719 2.41235   1
   3  11   0 -0.7068 2.85787   4
   3  11   0 -2.3177 2.85392   3
   3  11   0 1.22392 2.35960   5
  -4 -11   0 3.78751 3.08616   1
   4  11   0 2.81853 2.75647   5
   4  11   0 3.11209 3.41234   3
   4  11   0 1.62535 3.39784   4
  -5 -11   0 6.24733 3.60424   1
   5  11   0 1.26500 3.44530   5
   5  11   0 5.43180 4.04753   4
   5  11   0 5.48303 3.84258   3
  -6 -11   0 3.93909 3.53844   1
   6  11   0 10.2003 4.77576   4
   6  11   0 17.5748 5.32019   3
   6  11   0 28.0222 9.19136   5
  -3  12   0 4.01434 2.42514   5
  -3  12   0 1.82236 4.07916   3
  -3  12   0 2.99991 3.93782   1
  -2  12   0 0.31940 3.49880   1
  -2  12   0 -1.3957 4.23112   3
  -1  12   0 -2.3200 3.62751   3
  -1  12   0 4.51872 2.17407   5
   0  12   0 7.35536 2.38042   5
   0  12   0 5.38098 3.31832   4
   0  12   0 4.64581 3.76034   3
   1  12   0 2.01749 3.47775   3
   1  12   0 4.34639 2.46298   5
   1  12   0 2.82033 3.57862   4
  -2 -12   0 -1.3841 2.81149   1
   2  12   0 5.01808 2.56056   5
   2  12   0 5.07432 3.90618   4
   2  12   0 5.14663 3.68617   3
  -3 -12   0 5.68578 3.54975   1
   3  12   0 1.48907 3.69183   3
   3  12   0 6.01683 2.93805   5
   3  12   0 -2.7180 3.60502   4
  -4 -12   0 6.47139 3.84603   1
   4  12   0 24.6249 7.76305   3
   4  12   0 24.5493 6.76540   5
   4  12   0 12.1153 4.75297   4
  -5 -12   0 33.2439 9.11984   1
   5  12   0 13.3273 4.84106   4
   5  12   0 22.7239 7.46960   5
   5  12   0 26.8432 8.55626   3
  -1  13   0 3.04161 5.16430   3
  -1  13   0 5.76692 2.81554   5
   0  13   0 6.69055 3.00172   5
   0  13   0 11.6904 5.24329   3
   1  13   0 25.9172 8.52380   3
  -2 -13   0 4.16045 3.47310   1
   2  13   0 7.96587 5.06065   3
   2  13   0 20.2085 6.67318   5
   2  13   0 13.1654 5.09504   4
  -3 -13   0 10.3801 4.34357   1
   3  13   0 27.6526 9.00438   3
   3  13   0 0.51273 4.75803   4
   3  13   0 4.90405 3.08147   5
  -4 -13   0 4.13974 4.11817   1
   4  13   0 -0.5953 4.70355   4
   4  13   0 -2.1741 4.50939   3
   4  13   0 8.05752 3.93591   5
   3  13  -1 9.17314 5.25195   4
   3  13  -1 7.80254 3.74431   5
  -3 -13   1 0.10400 4.53593   1
   2  13  -1 25.2584 7.23602   5
   2  13  -1 5.17585 4.82114   3
   2  13  -1 2.40869 4.76480   4
   1  13  -1 9.37919 3.32197   5
   1  13  -1 13.1345 6.26290   3
   1  13  -1 11.6791 4.80536   4
   0  13  -1 -4.5250 2.63706   5
   0  13  -1 4.28904 5.49677   3
  -1  13  -1 62.7169 11.2179   3
  -1  13  -1 50.3393 6.56204   5
   5  12  -1 -3.6631 3.96656   5
   5  12  -1 8.06620 5.06244   4
   5  12  -1 14.3619 5.71165   3
  -5 -12   1 -3.6375 4.02430   1
   4  12  -1 29.6451 8.18252   3
   4  12  -1 10.6020 3.54538   5
   3  12  -1 -2.2619 3.06992   5
   3  12  -1 -0.2311 4.00602   3
   3  12  -1 3.10201 4.21400   4
  -3 -12   1 0.97164 3.64005   1
   2  12  -1 5.60206 3.21612   5
   2  12  -1 -1.0851 3.82069   4
   2  12  -1 8.50235 4.46315   3
  -2 -12   1 -3.3670 3.15745   1
   1  12  -1 16.1128 4.00164   4
   1  12  -1 23.7488 6.92255   3
   1  12  -1 22.2796 5.48114   5
   0  12  -1 29.1684 6.57467   4
   0  12  -1 13.1271 4.30567   5
   0  12  -1 22.2035 5.36006   3
  -1  12  -1 1.03785 4.04825   3
  -1  12  -1 18.9253 4.63811   5
  -2  12  -1 1.08122 3.60560   1
  -2  12  -1 -0.1761 4.18775   3
  -2  12  -1 2.36904 2.10118   5
  -3  12  -1 5.80859 2.82472   5
  -3  12  -1 5.30808 4.32961   1
  -3  12  -1 5.27347 4.67759   3
   6  11  -1 7.43403 4.64812   5
   6  11  -1 -0.1412 4.82678   3
   6  11  -1 4.67486 4.61296   4
  -6 -11   1 4.28663 4.48516   1
   5  11  -1 -2.3852 2.98758   5
   5  11  -1 -4.1796 3.39570   4
   5  11  -1 0.53411 3.94357   3
  -5 -11   1 0.26458 3.74439   1
   4  11  -1 6.20025 3.36671   5
   4  11  -1 0.62825 3.43549   3
   4  11  -1 6.20646 3.83977   4
  -4 -11   1 4.68947 3.27938   1
   3  11  -1 30.5047 5.42387   5
   3  11  -1 31.3043 6.31830   3
  -3 -11   1 31.1763 5.93930   1
   2  11  -1 62.9577 7.21776   3
   2  11  -1 57.2231 5.83900   5
   2  11  -1 55.9560 6.63952   4
  -2 -11   1 54.7958 6.23746   1
   1  11  -1 29.8889 4.83360   5
   1  11  -1 28.5211 5.93959   3
  -1 -11   1 20.3895 5.03776   1
   0  11  -1 18.3856 4.79843   5
   0  11  -1 6.66155 2.73109   4
   0  11  -1 7.95028 2.08932   5
   0  11  -1 22.8719 6.41672   3
  -1  11  -1 3.76990 1.90051   5
  -1  11  -1 2.17676 2.68894   5
  -1  11  -1 5.39811 2.57981   4
  -1  11  -1 6.87554 3.99318   3
  -2  11  -1 0.04405 3.47121   3
  -2  11  -1 -0.5069 1.97494   5
  -2  11  -1 0.55793 2.98518   1
  -3  11  -1 15.3137 4.17289   1
  -3  11  -1 21.7606 4.64730   5
  -3  11  -1 21.5597 6.79510   3
   3 -11   1 12.7908 3.43805   2
  -4  11  -1 29.4693 7.76972   3
  -4  11  -1 17.0854 4.96698   5
  -4  11  -1 28.2055 9.26785   1
   4 -11   1 24.6245 7.60125   2
   7  10  -1 90.7550 11.8392   5
   7  10  -1 81.2553 10.2409   3
   7  10  -1 90.7367 10.0018   4
  -7 -10   1 75.8908 8.88914   1
   6  10  -1 41.9173 8.41650   4
   6  10  -1 41.5067 8.56268   5
   6  10  -1 29.6823 7.73071   3
  -6 -10   1 34.2588 7.58595   1
   5  10  -1 -2.3535 3.05263   3
   5  10  -1 -4.1219 2.35345   5
   5  10  -1 0.19871 3.39439   4
  -5 -10   1 1.23511 2.72526   1
   4  10  -1 1.61318 2.94212   3
   4  10  -1 -0.1265 2.50715   5
   4  10  -1 -4.4230 2.48309   4
  -4 -10   1 0.65059 2.74701   1
   3  10  -1 72.1531 7.12318   4
   3  10  -1 63.1909 5.82755   5
   3  10  -1 66.0774 6.74684   3
   3  10  -1 57.1690 6.25028   5
  -3 -10   1 66.5909 6.17231   1
   2  10  -1 27.4590 4.88723   4
   2  10  -1 31.2179 4.58438   5
   2  10  -1 29.9965 4.42329   5
   2  10  -1 26.4008 4.80376   3
  -2 -10   1 31.0660 4.29816   5
  -2 -10   1 30.9555 4.85827   1
   1  10  -1 237.169 9.76811   4
   1  10  -1 238.967 9.05140   5
   1  10  -1 212.411 9.10349   5
   1  10  -1 225.329 10.6921   3
  -1 -10   1 214.461 10.1194   1
   0  10  -1 3.90363 2.18178   4
   0  10  -1 5.37342 1.62191   5
   0  10  -1 5.78042 2.74441   3
   0  10  -1 2.89511 1.85443   5
  -1  10  -1 9.44300 2.26404   4
  -1  10  -1 8.97808 2.15304   2
  -1  10  -1 16.3765 5.15544   3
  -1  10  -1 13.3192 4.30233   4
  -1  10  -1 11.1979 3.11388   5
  -1  10  -1 12.1931 3.77043   5
  -2  10  -1 -1.3368 1.49904   5
  -2  10  -1 1.14642 2.91610   3
  -2  10  -1 1.74361 2.38022   1
  -2  10  -1 1.79597 1.93220   5
   2 -10   1 0.55222 2.10530   2
  -3  10  -1 20.9908 5.91129   3
  -3  10  -1 29.2591 4.30343   5
  -3  10  -1 25.6320 6.26598   5
  -3  10  -1 42.7075 6.68217   1
   3 -10   1 32.0838 5.49068   2
  -4  10  -1 11.6492 3.84281   1
  -4  10  -1 5.18155 3.35960   3
   4 -10   1 21.6914 6.80059   2
  -5  10  -1 29.3279 7.84509   3
  -5  10  -1 21.0572 4.92753   5
   5 -10   1 26.9486 8.37278   2
   8   9  -1 -8.5495 4.63514   4
   8   9  -1 2.87118 5.50654   5
   8   9  -1 3.01273 5.24638   3
  -8  -9   1 -0.8429 3.77685   1
   7   9  -1 0.66066 3.44596   4
   7   9  -1 -1.7470 3.85256   5
   6   9  -1 2.17281 3.57708   3
   6   9  -1 -0.8665 3.03634   4
   6   9  -1 -2.6083 2.73738   5
  -6  -9   1 2.20830 2.81937   1
   5   9  -1 50.8641 6.18166   3
   5   9  -1 46.2006 6.22118   5
   5   9  -1 43.9120 6.61919   4
  -5  -9   1 52.0117 6.03425   1
   4   9  -1 17.3284 4.98944   5
   4   9  -1 9.82299 3.21331   3
   4   9  -1 9.50672 2.95078   4
   4   9  -1 7.45635 2.59812   5
  -4  -9   1 18.0131 4.48537   5
  -4  -9   1 5.42634 2.05889   1
   3   9  -1 51.6552 4.74032   5
   3   9  -1 36.5380 4.84655   5
   3   9  -1 45.7015 5.14512   4
   3   9  -1 41.6880 4.97236   3
  -3  -9   1 51.1756 4.63785   5
  -3  -9   1 38.5501 4.58572   1
   2   9  -1 101.080 5.59178   5
   2   9  -1 108.691 6.80014   4
   2   9  -1 103.221 6.90017   3
   2   9  -1 103.080 5.70104   5
  -2  -9   1 97.4251 5.00967   5
  -2  -9   1 92.0467 5.98108   1
   1   9  -1 1.76352 1.88160   4
   1   9  -1 4.76422 1.69708   5
   1   9  -1 1.64652 1.41933   5
   1   9  -1 2.44853 2.33289   3
  -1  -9   1 4.12972 1.37507   5
  -1  -9   1 1.82636 1.76885   1
   0   9  -1 0.49599 2.11708   3
   0   9  -1 1.77974 1.41621   5
   0   9  -1 -0.2881 1.76492   4
   0   9  -1 -0.1564 1.39840   5
  -1   9  -1 77.3930 4.85006   5
  -1   9  -1 73.3061 4.87512   4
  -1   9  -1 81.6305 4.58041   4
  -1   9  -1 71.0262 4.46148   2
  -1   9  -1 83.2225 4.53382   5
  -1   9  -1 92.1738 6.60368   3
  -2   9  -1 1.38583 1.32686   5
  -2   9  -1 -0.3090 1.44377   4
  -2   9  -1 3.51310 2.39368   2
  -2   9  -1 0.40938 1.29680   4
  -2   9  -1 -1.1386 2.10557   3
  -2   9  -1 1.47179 1.68548   5
   2  -9   1 -0.0448 1.67449   2
  -3   9  -1 46.4099 5.13729   3
  -3   9  -1 45.6131 4.41874   5
  -3   9  -1 50.2428 9.65290   2
  -3   9  -1 56.1279 6.00474   1
  -3   9  -1 43.4185 3.97251   5
   3  -9   1 46.1031 5.21037   2
  -4   9  -1 28.0246 5.33977   5
  -4   9  -1 31.4768 6.38575   1
  -4   9  -1 25.5919 5.31334   3
  -4   9  -1 17.6596 3.71648   5
   4  -9   1 35.0060 6.11480   2
  -5   9  -1 17.4059 3.95120   1
  -5   9  -1 28.4719 6.33201   3
  -5   9  -1 24.9221 4.31094   5
   5  -9   1 31.7789 7.32989   2
  -6   9  -1 5.69800 4.37411   3
  -6   9  -1 4.47849 3.86711   1
  -6   9  -1 1.54017 2.58132   5
   6  -9   1 9.99746 4.62458   2
   8   8  -1 5.61495 5.77267   5
   8   8  -1 1.83809 4.38391   3
  -8  -8   1 0.98151 3.30264   1
   7   8  -1 0.56536 2.63253   2
   7   8  -1 4.40190 3.45221   3
   7   8  -1 0.14553 2.85079   4
   7   8  -1 -3.3055 3.56139   5
  -7  -8   1 3.08419 3.09952   1
   6   8  -1 5.67738 2.62853   4
   6   8  -1 13.3067 3.78962   2
   6   8  -1 8.91055 3.32449   3
   6   8  -1 7.77648 3.19102   5
  -6  -8   1 5.28300 3.26624   5
  -6  -8   1 5.06429 2.48014   1
   5   8  -1 40.0596 5.88099   4
   5   8  -1 48.4388 5.85472   5
   5   8  -1 55.0392 5.70104   3
   5   8  -1 54.3774 6.45065   5
  -5  -8   1 47.3327 4.91288   1
   4   8  -1 156.643 7.77439   5
   4   8  -1 161.751 8.18741   3
   4   8  -1 144.978 7.43989   5
   4   8  -1 160.678 8.51241   4
  -4  -8   1 159.700 7.91785   1
  -4  -8   1 150.329 7.14362   5
   3   8  -1 1.81065 1.68713   3
   3   8  -1 2.60019 1.92067   4
   3   8  -1 -0.5686 1.60737   5
   3   8  -1 -0.1613 1.64282   5
  -3  -8   1 0.58283 1.50544   1
  -3  -8   1 -0.1887 1.72308   5
   2   8  -1 30.1448 3.80953   3
   2   8  -1 29.6622 3.52654   5
   2   8  -1 29.9444 3.27299   5
   2   8  -1 27.6667 3.84918   4
  -2  -8   1 25.1178 4.65015   4
  -2  -8   1 24.2758 3.24355   5
  -2  -8   1 28.2420 3.47802   1
   1   8  -1 37.5926 3.50921   5
   1   8  -1 38.5242 3.85515   4
   1   8  -1 38.2248 4.12156   3
   1   8  -1 43.1586 3.44582   5
  -1  -8   1 35.3299 3.78706   1
  -1  -8   1 36.5767 3.00915   5
  -1  -8   1 41.3940 4.47929   4
   0   8  -1 2.16724 1.71083   3
   0   8  -1 2.67954 1.14319   5
   0   8  -1 3.36651 1.23071   5
   0   8  -1 2.09822 1.48838   4
   0  -8   1 2.09729 1.44789   1
  -1   8  -1 16.4693 2.55319   5
  -1   8  -1 9.68202 2.23835   5
  -1   8  -1 13.9535 3.73176   3
  -1   8  -1 17.2013 2.68846   4
  -1   8  -1 15.4730 2.85136   2
   1  -8   1 16.5859 2.29223   2
  -2   8  -1 73.6201 5.45657   3
  -2   8  -1 77.4669 4.07290   5
  -2   8  -1 80.5312 3.71904   4
  -2   8  -1 76.9922 4.44540   5
  -2   8  -1 72.0438 3.45452   4
  -2   8  -1 77.0009 5.36674   2
   2  -8   1 80.8117 4.62846   2
  -3   8  -1 54.7177 3.95058   5
  -3   8  -1 55.1444 4.27293   5
  -3   8  -1 62.5487 5.62734   1
  -3   8  -1 48.2032 6.63074   2
  -3   8  -1 54.1167 4.68436   3
   3  -8   1 59.2966 4.81307   2
  -4   8  -1 3.69159 2.52476   1
  -4   8  -1 1.40136 1.36838   5
  -4   8  -1 1.09359 2.06650   3
  -4   8  -1 2.16062 2.08345   5
   4  -8   1 2.26770 2.15004   2
  -5   8  -1 79.6879 6.45018   3
  -5   8  -1 77.1419 6.71328   1
  -5   8  -1 76.5121 5.17846   5
   5  -8   1 61.3828 6.93564   2
  -6   8  -1 5.62832 2.37128   5
  -6   8  -1 3.41833 3.22417   3
  -6   8  -1 2.30890 2.71642   1
   6  -8   1 1.20551 3.20784   2
  -7   8  -1 30.8589 7.67612   1
  -7   8  -1 28.3075 6.24186   5
   7  -8   1 53.3067 10.1754   2
   8   7  -1 -5.0185 3.12995   2
   8   7  -1 7.23080 4.73072   5
   8   7  -1 -0.1554 3.68323   3
   8   7  -1 -6.4938 3.39483   4
  -8  -7   1 -1.0259 3.50570   1
   7   7  -1 25.0970 6.09417   4
   7   7  -1 17.6482 5.64946   3
   7   7  -1 23.7132 5.36241   2
   7   7  -1 14.3953 4.06631   5
  -7  -7   1 15.4024 4.22129   5
  -7  -7   1 14.1224 3.14119   1
   6   7  -1 17.8499 4.36296   3
   6   7  -1 23.7014 3.89096   2
   6   7  -1 20.2520 4.66751   4
   6   7  -1 16.9781 4.36147   5
   6   7  -1 21.4879 5.56153   5
  -6  -7   1 24.5266 4.89915   2
  -6  -7   1 15.0810 4.74822   5
  -6  -7   1 22.3828 4.55746   1
   5   7  -1 66.2122 5.27176   3
   5   7  -1 65.9540 5.63590   5
   5   7  -1 68.3091 3.88282   2
   5   7  -1 58.3048 6.42315   5
   5   7  -1 55.4199 5.58106   4
  -5  -7   1 63.7712 3.86145   2
  -5  -7   1 64.4974 5.22395   1
  -5  -7   1 70.3500 5.14514   5
   4   7  -1 4.46813 2.01449   4
   4   7  -1 6.40389 2.08960   5
   4   7  -1 9.14656 3.09100   3
   4   7  -1 2.07658 2.05799   5
  -4  -7   1 3.75796 1.36050   1
   3   7  -1 48.7110 4.62852   4
   3   7  -1 49.3222 4.17355   3
   3   7  -1 52.6930 4.15881   5
   3   7  -1 50.6873 3.86881   5
   3   7  -1 42.0051 6.18382   3
  -3  -7   1 54.0366 3.62671   5
  -3  -7   1 51.7684 4.06740   1
   2   7  -1 195.795 8.18171   3
   2   7  -1 204.361 8.29921   4
   2   7  -1 197.257 7.37605   5
   2   7  -1 189.892 8.07309   3
   2   7  -1 198.537 7.49486   5
  -2  -7   1 205.569 6.94145   5
  -2  -7   1 209.291 8.29000   1
  -2  -7   1 224.708 7.45098   5
  -2  -7   1 193.581 8.30031   4
   1   7  -1 169.973 6.28901   5
   1   7  -1 170.172 6.90384   4
   1   7  -1 159.974 6.20489   5
   1   7  -1 171.987 7.37796   3
   1   7  -1 153.609 6.95361   1
  -1  -7   1 156.423 5.46786   5
  -1  -7   1 168.754 7.02145   1
  -1  -7   1 171.900 6.81946   4
  -1  -7   1 167.153 5.64003   5
   0   7  -1 8.93409 2.60718   1
   0   7  -1 4.83105 1.84662   3
   0   7  -1 8.06627 2.05076   5
   0   7  -1 2.53269 0.89973   5
   0   7  -1 3.69072 1.29047   2
   0   7  -1 2.48184 1.09795   4
   0  -7   1 5.29902 1.67991   5
   0  -7   1 5.50071 1.75801   5
   0  -7   1 3.92317 1.28627   1
  -1   7  -1 65.5093 3.62995   5
  -1   7  -1 72.5365 3.70582   4
  -1   7  -1 65.1487 3.46000   5
  -1   7  -1 70.7315 4.59602   3
  -1   7  -1 65.1199 3.68696   2
   1  -7   1 68.1729 3.40800   2
  -2   7  -1 2.12376 0.95552   5
  -2   7  -1 2.27914 1.55147   3
  -2   7  -1 2.01050 1.69171   2
  -2   7  -1 1.66689 1.07082   5
  -2   7  -1 1.82391 0.94838   4
  -2   7  -1 1.71453 0.82297   4
   2  -7   1 0.55905 1.12212   2
  -3   7  -1 4.84845 1.82780   3
  -3   7  -1 13.5619 3.54176   1
  -3   7  -1 9.87850 2.57484   5
  -3   7  -1 5.80294 1.72372   5
  -3   7  -1 1.80589 2.41688   2
   3  -7   1 3.13859 1.66334   2
  -4   7  -1 8.46432 2.29992   3
  -4   7  -1 7.44085 2.09872   5
  -4   7  -1 10.2457 2.88017   5
  -4   7  -1 7.92749 2.29673   1
   4  -7   1 8.69340 2.35254   2
  -5   7  -1 1.49713 2.08650   1
  -5   7  -1 2.50397 2.54279   3
  -5   7  -1 -0.0252 1.55177   5
  -5   7  -1 -1.0589 2.29625   5
   5  -7   1 -1.9417 2.20213   2
  -6   7  -1 5.92725 2.66031   1
  -6   7  -1 8.20520 2.77640   3
  -6   7  -1 19.5109 4.58990   5
   6  -7   1 5.21970 3.30587   2
  -7   7  -1 27.5037 7.53399   1
  -7   7  -1 16.3641 3.68363   5
  -7   7  -1 18.1415 5.67916   3
   7  -7   1 37.7716 8.57195   2
   9   6  -1 13.2753 4.90817   2
   9   6  -1 35.3474 9.43664   4
  -9  -6   1 9.51402 4.15074   1
   8   6  -1 7.91313 3.43049   2
   8   6  -1 20.3027 5.79796   3
   8   6  -1 25.3831 7.54932   4
   8   6  -1 8.26414 3.85163   5
  -8  -6   1 8.29978 3.33007   1
  -8  -6   1 9.85260 4.49280   5
   7   6  -1 0.45467 2.87019   5
   7   6  -1 1.16796 2.39209   3
   7   6  -1 1.15048 2.34348   2
  -7  -6   1 3.36474 2.59387   1
  -7  -6   1 1.22066 2.32779   5
   6   6  -1 2.26206 2.12823   3
   6   6  -1 5.33858 2.71022   5
   6   6  -1 -0.9689 3.07778   3
   6   6  -1 0.79459 1.78882   2
   6   6  -1 2.09699 2.11978   4
   6   6  -1 2.07808 2.28154   5
  -6  -6   1 1.28182 2.34273   2
  -6  -6   1 -2.0337 2.14399   5
  -6  -6   1 1.70292 1.84396   1
   5   6  -1 28.2691 4.42576   5
   5   6  -1 17.3289 3.37700   3
   5   6  -1 16.5688 4.03459   4
   5   6  -1 23.9255 4.06849   3
   5   6  -1 26.0731 4.24779   5
   5   6  -1 19.6539 2.92273   2
  -5  -6   1 16.0869 3.19671   1
  -5  -6   1 22.1805 3.35241   2
  -5  -6   1 17.5314 3.70775   5
   4   6  -1 35.6428 3.98639   5
   4   6  -1 36.4622 4.04751   4
   4   6  -1 35.7922 3.71271   3
   4   6  -1 45.6747 4.33705   3
   4   6  -1 31.1227 3.50620   5
   4   6  -1 37.9410 2.49144   2
  -4  -6   1 38.2533 2.59687   2
  -4  -6   1 35.8773 3.59947   5
  -4  -6   1 38.8602 3.54019   1
  -4  -6   1 38.8658 4.40278   5
   3   6  -1 11.5868 2.86778   4
   3   6  -1 10.8204 2.69741   5
   3   6  -1 13.2896 2.72598   3
   3   6  -1 14.2441 2.55997   1
   3   6  -1 13.3286 2.73934   5
  -3  -6   1 16.1506 2.53423   5
  -3  -6   1 12.9390 3.37360   4
  -3  -6   1 11.5644 2.24112   1
   2   6  -1 -1.2765 1.03698   3
   2   6  -1 1.39341 1.19234   4
   2   6  -1 -0.5005 0.91280   5
   2   6  -1 -0.2418 0.83967   5
   2   6  -1 1.66975 1.00076   1
  -2  -6   1 0.81722 0.76845   1
  -2  -6   1 1.09235 1.27317   4
  -2  -6   1 -0.2738 0.91039   5
  -2  -6   1 0.99055 1.01356   5
   1   6  -1 115.273 4.68180   5
   1   6  -1 108.846 4.98816   4
   1   6  -1 114.053 4.65995   5
   1   6  -1 107.295 5.15658   1
   1   6  -1 114.733 5.40749   3
  -1  -6   1 111.356 5.15194   4
  -1  -6   1 117.007 4.29064   5
  -1  -6   1 108.696 5.14062   1
  -1  -6   1 113.856 4.26031   5
   0   6  -1 0.60762 1.13194   1
   0   6  -1 0.57036 0.69597   5
   0   6  -1 0.53317 0.54955   2
   0   6  -1 0.80914 1.06621   3
   0   6  -1 1.02155 0.70761   5
   0  -6   1 1.08037 0.69379   5
   0  -6   1 -0.6469 0.75932   5
   0  -6   1 0.23687 0.88084   4
   0  -6   1 0.53362 0.89126   1
   0  -6   1 1.57502 0.56870   2
  -1   6  -1 108.176 5.27648   1
  -1   6  -1 107.780 5.26179   3
  -1   6  -1 106.972 4.26977   5
  -1   6  -1 104.379 4.25083   5
  -1   6  -1 105.880 4.13228   4
  -1   6  -1 106.866 4.35345   2
   1  -6   1 104.772 3.58246   5
   1  -6   1 105.808 4.16278   2
   1  -6   1 107.369 3.52968   5
  -2   6  -1 52.0084 2.24932   4
  -2   6  -1 51.8806 3.93988   1
  -2   6  -1 50.2005 2.93218   5
  -2   6  -1 51.4308 3.13709   5
  -2   6  -1 51.9377 3.78501   3
  -2   6  -1 56.0251 3.75370   2
   2  -6   1 52.6222 3.32637   2
   2  -6   1 55.3635 2.28561   5
   2  -6   1 55.8593 2.34351   5
  -3   6  -1 8.54424 2.04119   2
  -3   6  -1 11.6236 2.69738   3
  -3   6  -1 10.9564 2.11506   5
  -3   6  -1 12.9359 2.84223   1
  -3   6  -1 12.4978 2.46899   5
   3  -6   1 10.3146 1.75472   5
   3  -6   1 17.4447 2.97675   2
   3  -6   1 8.29792 1.72077   5
   3  -6   1 9.94516 2.48926   3
  -4   6  -1 6.50295 1.86080   1
  -4   6  -1 9.12093 2.79129   3
  -4   6  -1 5.40630 1.87010   5
  -4   6  -1 8.66312 2.39143   5
   4  -6   1 15.6292 3.59990   2
   4  -6   1 7.94732 2.70916   3
  -5   6  -1 72.5292 4.71681   5
  -5   6  -1 67.3492 5.51976   5
  -5   6  -1 70.4278 4.87840   3
  -5   6  -1 65.8011 5.32289   1
   5  -6   1 65.3953 4.09571   5
   5  -6   1 73.1281 5.77630   2
  -6   6  -1 20.0287 3.86661   5
  -6   6  -1 19.6704 6.11859   5
  -6   6  -1 13.5972 4.70327   1
  -6   6  -1 12.7382 3.75107   3
   6  -6   1 10.7354 3.05112   2
  -7   6  -1 38.2799 6.61110   1
  -7   6  -1 32.7206 5.71663   5
  -7   6  -1 26.5437 4.76677   3
   7  -6   1 34.5458 7.80580   2
  -8   6  -1 -1.3735 3.53370   1
  -8   6  -1 6.85170 3.62803   5
   8  -6   1 1.62455 4.09675   2
   9   5  -1 -6.7775 3.72317   2
   9   5  -1 -3.6120 3.50637   4
  -9  -5   1 2.99496 3.35705   1
   8   5  -1 2.07362 3.45860   5
   8   5  -1 1.26981 3.13992   4
   8   5  -1 -1.4105 2.99328   2
   8   5  -1 6.65237 2.72790   3
  -8  -5   1 3.04741 3.63207   5
  -8  -5   1 4.15582 2.74903   1
   7   5  -1 20.8456 5.19756   3
   7   5  -1 20.8827 4.94678   2
   7   5  -1 21.7335 5.33939   4
   7   5  -1 18.4072 4.18087   3
   7   5  -1 18.4103 5.90221   5
  -7  -5   1 13.5087 4.03914   1
  -7  -5   1 21.1997 5.85110   5
   6   5  -1 6.51733 2.33772   4
   6   5  -1 1.74830 2.16740   3
   6   5  -1 5.90071 2.47875   5
   6   5  -1 0.51070 2.18606   5
   6   5  -1 3.65559 2.03538   3
   6   5  -1 3.10320 1.70829   2
  -6  -5   1 2.93748 2.12262   5
  -6  -5   1 2.93101 1.68815   1
  -6  -5   1 5.06905 2.30659   2
   5   5  -1 4.15608 1.75426   3
   5   5  -1 2.32214 1.73284   5
   5   5  -1 2.17837 1.23108   2
   5   5  -1 1.99969 1.48129   3
   5   5  -1 3.82652 1.72803   5
   5   5  -1 3.14886 1.71374   4
  -5  -5   1 2.86346 1.42796   1
  -5  -5   1 3.45115 1.72062   5
  -5  -5   1 1.62275 1.81876   5
  -5  -5   1 2.57608 1.50903   2
   4   5  -1 220.110 7.02456   2
   4   5  -1 221.172 8.13177   3
   4   5  -1 210.560 7.99073   5
   4   5  -1 217.265 8.82991   4
   4   5  -1 213.005 8.12794   5
   4   5  -1 211.573 8.24518   1
   4   5  -1 213.520 7.87992   3
  -4  -5   1 216.375 7.91547   5
  -4  -5   1 223.040 8.04910   5
  -4  -5   1 214.096 7.03328   2
  -4  -5   1 204.181 8.20212   1
   3   5  -1 443.720 11.8824   2
   3   5  -1 451.155 13.5575   3
   3   5  -1 443.273 13.2637   5
   3   5  -1 436.644 13.3596   5
   3   5  -1 453.580 13.6360   3
   3   5  -1 443.427 14.1279   4
   3   5  -1 469.513 13.7626   1
  -3  -5   1 450.525 11.8839   2
  -3  -5   1 461.321 13.8085   1
  -3  -5   1 460.586 14.0099   4
  -3  -5   1 451.271 13.2347   5
  -3  -5   1 444.008 13.1744   5
   2   5  -1 23.2004 2.40048   3
   2   5  -1 20.8679 2.45390   4
   2   5  -1 22.6515 2.33331   1
   2   5  -1 21.3989 2.11393   5
   2   5  -1 21.7814 2.17661   5
  -2  -5   1 27.6000 2.06426   5
  -2  -5   1 22.0984 2.19262   1
  -2  -5   1 16.7736 2.61576   4
   1   5  -1 20.8527 2.27036   3
   1   5  -1 22.0011 2.14957   1
   1   5  -1 21.9317 1.94100   5
   1   5  -1 20.8679 2.14037   4
   1   5  -1 21.9401 1.97527   5
  -1  -5   1 24.4705 1.91896   5
  -1  -5   1 20.2383 2.02287   1
  -1  -5   1 25.1385 1.81959   5
  -1  -5   1 22.6751 2.35756   4
   0   5  -1 20.1907 1.27300   2
   0   5  -1 20.3473 1.80104   5
   0   5  -1 21.6038 2.18422   1
   0   5  -1 18.5526 2.14792   3
   0   5  -1 19.2851 1.63327   5
   0   5  -1 18.8940 1.87526   4
   0  -5   1 17.4000 1.92195   4
   0  -5   1 18.5006 1.20596   2
   0  -5   1 21.5149 1.49711   5
   0  -5   1 19.1312 2.05203   1
   0  -5   1 18.9460 1.63803   5
  -1   5  -1 173.540 6.63300   3
  -1   5  -1 171.620 5.55305   4
  -1   5  -1 180.299 5.91330   5
  -1   5  -1 188.546 6.78700   1
  -1   5  -1 182.415 5.81143   5
  -1   5  -1 185.994 5.91929   2
   1  -5   1 174.060 6.65476   3
   1  -5   1 179.659 5.27919   5
   1  -5   1 176.007 5.75390   2
   1  -5   1 185.575 5.38984   5
  -2   5  -1 282.138 8.64566   5
  -2   5  -1 280.603 8.47158   5
  -2   5  -1 276.723 9.39812   3
  -2   5  -1 292.237 9.67587   1
  -2   5  -1 292.700 9.18892   2
  -2   5  -1 296.790 9.70935   1
   2  -5   1 256.742 7.84669   5
   2  -5   1 283.413 7.83857   5
   2  -5   1 281.623 8.99617   2
   2  -5   1 290.986 9.43251   3
  -3   5  -1 33.7234 2.48571   5
  -3   5  -1 32.5015 2.82877   3
  -3   5  -1 31.6146 2.83948   5
  -3   5  -1 35.3760 3.27200   1
  -3   5  -1 30.5224 3.67864   2
   3  -5   1 35.6530 2.22305   5
   3  -5   1 35.6373 3.26891   2
   3  -5   1 36.8946 3.55751   3
   3  -5   1 33.3758 2.09987   5
  -4   5  -1 38.4366 4.82444   2
  -4   5  -1 36.0092 3.02263   5
  -4   5  -1 34.7855 3.82638   1
  -4   5  -1 36.0793 3.14757   3
  -4   5  -1 28.7669 3.23064   5
   4  -5   1 29.6267 3.65274   2
   4  -5   1 33.2711 3.99808   3
   4  -5   1 29.8366 2.71574   5
  -5   5  -1 2.76485 1.64114   3
  -5   5  -1 1.18758 1.52377   5
  -5   5  -1 0.54290 1.58261   1
  -5   5  -1 1.51717 1.35732   5
   5  -5   1 -2.2666 1.43002   5
   5  -5   1 3.33057 2.28297   3
   5  -5   1 0.51490 1.67491   2
  -6   5  -1 0.77525 1.60990   5
  -6   5  -1 1.01766 1.83848   1
  -6   5  -1 -1.1761 2.22060   5
  -6   5  -1 0.15077 1.85812   3
   6  -5   1 -1.6908 2.06186   5
   6  -5   1 0.46625 2.78657   3
   6  -5   1 1.75078 2.02893   2
  -7   5  -1 -0.0738 1.83498   5
  -7   5  -1 0.69551 2.52091   1
   7  -5   1 -2.7727 2.58285   2
  -8   5  -1 6.30972 3.13724   1
  -8   5  -1 5.86006 2.74123   5
   8  -5   1 6.19982 3.89889   2
   9   4  -1 5.98983 3.62837   4
   9   4  -1 6.16831 4.10721   2
  -9  -4   1 6.89829 4.51842   5
  -9  -4   1 3.13625 3.37431   1
   8   4  -1 2.30326 2.67289   4
   8   4  -1 -0.0752 2.96989   2
   8   4  -1 2.87401 2.34212   3
   8   4  -1 2.60690 3.82461   5
  -8  -4   1 1.47894 2.41320   1
  -8  -4   1 0.97872 3.09904   5
   7   4  -1 6.28769 2.08394   3
   7   4  -1 6.21945 2.42975   5
   7   4  -1 4.77581 2.11829   2
   7   4  -1 8.55206 2.49660   3
   7   4  -1 4.49964 2.35267   4
  -7  -4   1 6.71727 2.65250   5
  -7  -4   1 5.85893 2.34366   1
   6   4  -1 36.9540 4.38752   4
   6   4  -1 48.5269 5.08011   5
   6   4  -1 30.5012 3.71170   3
   6   4  -1 43.6102 4.19475   2
   6   4  -1 35.4639 5.51199   5
   6   4  -1 37.9247 3.40145   3
  -6  -4   1 37.8394 5.32554   2
  -6  -4   1 39.9982 4.11769   1
  -6  -4   1 37.5244 4.44954   5
  -6  -4   1 41.8038 5.53902   5
   5   4  -1 6.36894 1.87386   5
   5   4  -1 6.60651 2.29518   2
   5   4  -1 3.30722 1.55021   4
   5   4  -1 10.7211 2.87553   5
   5   4  -1 8.69116 2.68600   3
  -5  -4   1 4.29182 1.60127   5
  -5  -4   1 4.67581 1.86883   2
  -5  -4   1 6.16822 1.80436   5
  -5  -4   1 2.28485 1.35236   1
   4   4  -1 167.215 6.55743   1
   4   4  -1 161.351 6.10897   3
   4   4  -1 154.549 6.45077   5
   4   4  -1 156.569 6.40067   5
   4   4  -1 144.525 6.76940   4
  -4  -4   1 152.684 6.78581   4
  -4  -4   1 163.672 5.92590   2
  -4  -4   1 162.435 6.52057   1
  -4  -4   1 157.277 6.47904   5
  -4  -4   1 160.332 6.37950   5
   3   4  -1 8.84046 1.88040   1
   3   4  -1 10.3386 1.87427   5
   3   4  -1 7.24271 1.99205   5
   3   4  -1 6.52205 1.61706   3
   3   4  -1 8.69291 1.94499   4
   3   4  -1 8.86245 1.85828   3
   3   4  -1 7.19878 1.38899   2
  -3  -4   1 9.79912 2.36429   4
  -3  -4   1 7.27247 1.79479   5
  -3  -4   1 9.45668 1.79854   5
  -3  -4   1 8.12767 1.47285   2
  -3  -4   1 6.74714 1.67193   1
   2   4  -1 247.251 8.15427   3
   2   4  -1 251.994 8.45809   4
   2   4  -1 252.296 6.66774   2
   2   4  -1 255.482 7.89748   5
   2   4  -1 243.347 7.85434   5
   2   4  -1 260.906 8.15487   1
  -2  -4   1 254.605 7.76530   5
  -2  -4   1 260.972 8.37785   4
  -2  -4   1 258.506 6.67901   2
  -2  -4   1 240.973 8.10226   1
  -2  -4   1 255.849 7.82351   5
   1   4  -1 91.3003 3.77025   1
   1   4  -1 91.5310 4.01651   3
   1   4  -1 88.3697 3.67607   5
   1   4  -1 87.1324 3.48787   5
   1   4  -1 85.0005 3.78359   4
  -1  -4   1 91.4334 3.37786   5
  -1  -4   1 92.4552 3.86109   1
  -1  -4   1 89.6674 3.81065   4
   0   4  -1 16.1601 1.43204   5
   0   4  -1 14.0368 1.35881   5
   0   4  -1 14.8757 1.50960   4
   0   4  -1 15.7928 1.57146   1
   0   4  -1 16.4972 1.03647   2
   0   4  -1 14.6154 1.74399   3
   0  -4   1 17.9552 1.24592   5
   0  -4   1 16.5320 1.01738   2
   0  -4   1 17.5244 1.43141   5
   0  -4   1 16.9742 1.71639   1
   0  -4   1 13.8211 1.81516   3
   0  -4   1 16.6718 1.58183   4
  -1   4  -1 6.31518 1.36411   2
  -1   4  -1 6.16027 1.38264   1
  -1   4  -1 6.99462 1.53382   3
  -1   4  -1 6.64437 1.02131   4
  -1   4  -1 5.26870 1.01987   5
  -1   4  -1 5.44809 1.12306   5
   1  -4   1 7.73228 0.93386   5
   1  -4   1 5.90152 1.61813   3
   1  -4   1 6.63475 1.26000   2
  -2   4  -1 285.518 8.35601   5
  -2   4  -1 291.569 8.97729   2
  -2   4  -1 277.120 8.98223   3
  -2   4  -1 281.886 9.24589   1
  -2   4  -1 292.777 8.53387   5
   2  -4   1 283.515 8.05627   5
   2  -4   1 293.763 9.09933   3
   2  -4   1 290.960 8.00797   5
  -3   4  -1 194.421 6.51741   5
  -3   4  -1 191.766 6.83595   3
  -3   4  -1 198.687 7.40537   2
  -3   4  -1 193.948 7.40632   1
  -3   4  -1 190.311 6.66531   5
   3  -4   1 194.701 5.99311   5
   3  -4   1 192.318 7.33362   2
   3  -4   1 200.764 6.18289   5
   3  -4   1 192.077 6.95402   3
  -4   4  -1 39.4151 3.14998   3
  -4   4  -1 38.7339 3.52451   1
  -4   4  -1 39.0377 4.28746   2
  -4   4  -1 40.0711 3.11894   5
  -4   4  -1 38.1661 2.88867   5
   4  -4   1 38.2460 3.43199   3
   4  -4   1 39.2303 2.81364   5
   4  -4   1 33.8609 2.65810   5
   4  -4   1 42.5379 3.83644   2
  -5   4  -1 25.9003 2.90892   3
  -5   4  -1 27.1553 2.98749   5
  -5   4  -1 27.9036 3.69421   1
   5  -4   1 31.9055 3.18502   5
   5  -4   1 24.1097 4.04909   2
   5  -4   1 24.4350 3.56942   3
  -6   4  -1 6.22890 1.99053   5
  -6   4  -1 10.1882 2.83629   3
  -6   4  -1 5.33636 2.00957   1
   6  -4   1 4.93079 2.13465   2
   6  -4   1 13.9204 4.18209   3
  -7   4  -1 7.45775 2.07238   3
  -7   4  -1 7.97908 2.60646   5
  -7   4  -1 2.76371 2.38796   1
   7  -4   1 6.21889 2.50756   2
  -8   4  -1 17.6200 4.11766   1
  -8   4  -1 24.0892 6.05381   5
   8  -4   1 17.0155 4.34880   2
  -9   4  -1 18.9869 4.15596   5
  -9   4  -1 27.3353 7.63647   1
   9  -4   1 29.3987 9.63962   2
   9   3  -1 8.85746 3.70597   4
   9   3  -1 8.37527 4.17610   2
  -9  -3   1 18.8541 5.96260   1
  -9  -3   1 14.1161 5.15657   5
   8   3  -1 61.9795 6.39112   4
   8   3  -1 51.8178 7.62758   5
   8   3  -1 73.8638 7.43074   2
  -8  -3   1 63.0714 6.92039   5
  -8  -3   1 51.5025 5.72300   1
   7   3  -1 38.2377 3.51299   3
   7   3  -1 36.2942 4.77146   4
   7   3  -1 38.8250 3.63489   3
   7   3  -1 44.5451 6.21151   5
   7   3  -1 40.0765 4.86203   2
  -7  -3   1 31.2027 7.59440   5
  -7  -3   1 41.6130 4.77478   1
  -7  -3   1 40.8560 5.34532   5
   6   3  -1 74.8647 4.05142   3
   6   3  -1 77.7337 5.26022   5
   6   3  -1 70.3148 5.06095   2
   6   3  -1 70.9431 5.16929   5
   6   3  -1 67.8620 5.15503   4
  -6  -3   1 78.0959 5.37311   5
  -6  -3   1 72.4857 4.97270   1
  -6  -3   1 72.5399 5.81664   5
  -6  -3   1 67.5101 6.16327   2
   5   3  -1 92.6538 4.19626   3
   5   3  -1 92.9844 4.99601   2
   5   3  -1 94.2507 5.02000   1
   5   3  -1 94.7094 5.35391   4
   5   3  -1 94.0127 5.12133   5
   5   3  -1 88.0313 6.83380   5
  -5  -3   1 92.0128 5.16477   2
  -5  -3   1 91.9571 5.03029   5
  -5  -3   1 96.8431 5.06822   1
  -5  -3   1 97.8495 5.28118   5
  -5  -3   1 89.4398 5.74780   4
   4   3  -1 120.328 5.19148   5
   4   3  -1 127.817 4.71536   3
   4   3  -1 123.809 5.70173   4
   4   3  -1 123.993 5.08818   2
   4   3  -1 121.702 5.31498   1
   4   3  -1 112.793 5.53946   5
  -4  -3   1 122.701 5.13806   2
  -4  -3   1 123.542 5.28089   5
  -4  -3   1 124.460 5.59909   4
  -4  -3   1 117.898 5.27045   1
   3   3  -1 3065.84 75.7075   1
   3   3  -1 3050.47 75.0043   2
   3   3  -1 3043.65 75.5007   5
   3   3  -1 3128.24 75.2308   3
   3   3  -1 2958.32 75.5792   5
   3   3  -1 2930.12 76.1446   4
  -3  -3   1 3069.20 75.5443   5
  -3  -3   1 3081.58 75.5618   5
  -3  -3   1 3062.23 75.7547   1
  -3  -3   1 3072.50 74.9720   2
  -3  -3   1 3117.03 76.1849   4
   2   3  -1 1288.34 34.0435   1
   2   3  -1 1329.31 33.9573   3
   2   3  -1 1352.18 33.1306   2
   2   3  -1 1358.12 33.9449   5
   2   3  -1 1276.60 33.8092   5
  -2  -3   1 1356.15 33.1244   2
  -2  -3   1 1352.32 33.9603   5
  -2  -3   1 1371.08 33.9078   5
  -2  -3   1 1392.64 34.4935   4
   1   3  -1 344.629 10.0102   4
   1   3  -1 340.757 9.63796   5
   1   3  -1 342.777 9.99630   3
   1   3  -1 348.651 9.71294   5
  -1  -3   1 352.975 9.96473   4
  -1  -3   1 363.285 9.98679   1
  -1  -3   1 358.366 9.61520   5
   0   3  -1 656.420 16.8189   5
   0   3  -1 642.080 16.9170   4
   0   3  -1 645.374 16.2783   2
   0   3  -1 624.619 17.2262   1
   0   3  -1 642.000 16.8707   5
   0   3  -1 652.606 17.4154   3
   0  -3   1 665.583 16.7144   5
   0  -3   1 667.035 16.7719   5
   0  -3   1 681.815 16.9319   4
   0  -3   1 678.264 17.4513   3
   0  -3   1 673.826 17.3103   1
   0  -3   1 653.529 16.2773   2
  -1   3  -1 230.541 6.74030   2
  -1   3  -1 226.966 7.10908   3
  -1   3  -1 225.946 6.55565   5
  -1   3  -1 237.179 6.69752   5
  -1   3  -1 225.373 7.11652   1
  -1   3  -1 228.223 6.12820   4
   1  -3   1 234.417 6.41475   5
   1  -3   1 234.344 7.14999   3
   1  -3   1 231.181 6.72469   2
  -2   3  -1 24.8062 1.86158   5
  -2   3  -1 29.2119 2.05866   3
  -2   3  -1 28.7252 2.21966   1
  -2   3  -1 28.6812 2.18012   2
  -2   3  -1 26.4182 1.81829   5
   2  -3   1 30.2320 1.73154   5
   2  -3   1 29.5746 1.62366   5
   2  -3   1 31.6094 2.11488   3
   2  -3   1 28.7919 2.27724   2
  -3   3  -1 125.463 4.67166   5
  -3   3  -1 126.668 5.39133   2
  -3   3  -1 129.193 5.35815   1
   3  -3   1 120.666 5.30086   2
   3  -3   1 133.330 4.60979   5
   3  -3   1 125.806 4.82477   3
   3  -3   1 129.175 4.38677   5
  -4   3  -1 80.9394 3.92358   5
  -4   3  -1 86.4108 3.90255   3
  -4   3  -1 80.6909 4.23188   5
  -4   3  -1 94.0979 4.79174   1
  -4   3  -1 82.8475 5.01513   2
   4  -3   1 85.6095 4.02085   3
   4  -3   1 80.6754 4.56954   1
   4  -3   1 81.2553 3.59594   5
   4  -3   1 91.4238 3.95980   5
   4  -3   1 86.5838 4.82044   2
  -5   3  -1 124.671 6.04842   5
  -5   3  -1 127.181 6.24056   1
  -5   3  -1 130.966 5.79485   5
  -5   3  -1 125.425 4.32224   4
  -5   3  -1 127.979 5.19732   3
   5  -3   1 128.508 6.81981   2
   5  -3   1 125.631 5.48074   3
   5  -3   1 126.150 4.28870   4
   5  -3   1 132.203 5.54474   5
  -6   3  -1 23.6920 3.84488   1
  -6   3  -1 19.9232 4.56405   5
  -6   3  -1 23.1957 2.71344   3
  -6   3  -1 20.0359 2.61365   4
  -6   3  -1 25.5729 3.77134   5
   6  -3   1 19.7001 2.25431   4
   6  -3   1 25.7614 3.57069   5
   6  -3   1 16.7935 4.18060   2
   6  -3   1 21.9341 3.64751   3
  -7   3  -1 72.8459 6.05991   5
  -7   3  -1 74.1842 4.46159   4
  -7   3  -1 73.3471 6.14769   1
  -7   3  -1 67.4152 4.32182   3
  -7   3  -1 78.8815 6.88510   5
   7  -3   1 62.1010 5.45060   3
   7  -3   1 70.7801 5.78654   5
   7  -3   1 69.4942 6.45228   2
  -8   3  -1 0.18037 2.36702   5
  -8   3  -1 1.53883 2.53720   3
  -8   3  -1 -0.5196 2.10353   1
   8  -3   1 4.95537 2.91094   2
  -9   3  -1 9.96846 3.79796   1
  -9   3  -1 25.4376 7.93904   5
   9  -3   1 10.3428 4.26340   2
   9   2  -1 3.04210 3.20573   4
   9   2  -1 -2.0704 3.46799   2
  -9  -2   1 0.66698 2.62941   1
  -9  -2   1 3.85216 4.06546   5
   8   2  -1 20.8399 5.86515   5
   8   2  -1 26.4818 5.76790   4
   8   2  -1 32.9844 6.06597   2
  -8  -2   1 30.0351 6.64358   5
  -8  -2   1 21.4944 4.70485   1
   7   2  -1 24.6557 2.70322   3
   7   2  -1 30.3037 4.80647   2
   7   2  -1 31.3070 4.37331   4
   7   2  -1 20.3461 4.83949   5
  -7  -2   1 22.4887 4.44147   5
  -7  -2   1 16.7649 3.48914   1
  -7  -2   1 20.6704 4.29590   5
   6   2  -1 10.0251 2.71563   5
   6   2  -1 14.3926 3.34665   4
   6   2  -1 9.95749 3.24257   2
   6   2  -1 14.6455 3.47345   5
   6   2  -1 10.3917 2.11212   3
  -6  -2   1 9.96310 2.02656   5
  -6  -2   1 11.1319 2.75402   1
  -6  -2   1 6.11590 2.48852   5
   5   2  -1 13.5053 2.84247   4
   5   2  -1 15.6751 1.97018   3
   5   2  -1 17.8512 2.88958   2
   5   2  -1 14.7084 2.64236   5
   5   2  -1 14.1947 3.05654   1
   5   2  -1 16.0314 2.70045   5
  -5  -2   1 11.1300 2.41219   5
  -5  -2   1 13.0683 2.45886   1
  -5  -2   1 12.2342 3.30755   2
  -5  -2   1 19.5057 2.88399   5
  -5  -2   1 14.1896 3.64727   4
   4   2  -1 5.03104 1.35779   5
   4   2  -1 6.68720 1.73994   5
   4   2  -1 4.01596 0.92849   3
   4   2  -1 2.89396 1.19131   2
   4   2  -1 6.27165 1.69617   1
   4   2  -1 3.44854 1.08788   4
  -4  -2   1 3.17477 1.21365   5
  -4  -2   1 4.66780 1.37301   4
  -4  -2   1 2.50195 1.07456   5
  -4  -2   1 2.79166 1.01021   1
  -4  -2   1 3.56045 1.21122   2
   3   2  -1 330.863 9.07134   3
   3   2  -1 323.477 9.57872   2
   3   2  -1 323.225 9.69358   5
   3   2  -1 310.020 9.53656   5
   3   2  -1 310.825 10.0383   4
   3   2  -1 342.899 9.84861   1
  -3  -2   1 322.198 9.49854   2
  -3  -2   1 333.388 9.75337   5
  -3  -2   1 328.027 9.72603   5
  -3  -2   1 318.372 9.77412   1
  -3  -2   1 324.010 10.0200   4
   2   2  -1 147.187 4.86805   5
   2   2  -1 145.975 5.21508   4
   2   2  -1 148.105 4.56840   2
   2   2  -1 138.033 4.79389   5
   2   2  -1 144.304 4.91143   1
   2   2  -1 142.120 4.60992   3
   2   2  -1 154.952 4.69227   3
  -2  -2   1 150.076 4.58497   2
  -2  -2   1 147.397 5.17760   4
  -2  -2   1 149.248 4.86955   5
  -2  -2   1 144.689 4.87490   5
  -2  -2   1 145.592 4.92877   1
   1   2  -1 321.350 8.26240   2
   1   2  -1 367.094 9.04418   1
   1   2  -1 316.615 8.95860   3
   1   2  -1 313.160 8.84404   5
   1   2  -1 326.424 8.90353   5
   1   2  -1 310.555 9.11414   4
  -1  -2   1 328.519 8.86255   5
  -1  -2   1 319.561 8.25711   2
  -1  -2   1 335.771 8.98945   1
  -1  -2   1 324.066 8.87328   5
  -1  -2   1 327.804 9.12774   4
   0   2  -1 633.247 16.1833   5
   0   2  -1 619.397 16.1199   4
   0   2  -1 645.142 15.7377   2
   0   2  -1 628.475 16.1125   5
   0   2  -1 643.033 16.3804   1
   0   2  -1 606.089 16.4406   3
   0  -2   1 655.513 16.3801   1
   0  -2   1 648.354 15.7424   2
   0  -2   1 638.443 16.4751   3
   0  -2   1 655.271 16.0905   5
   0  -2   1 639.399 16.1166   4
  -1   2  -1 7.80307 0.96484   2
  -1   2  -1 7.46108 0.99669   3
  -1   2  -1 6.75055 0.96994   5
  -1   2  -1 7.52552 0.80978   5
   1  -2   1 7.58621 0.79096   5
   1  -2   1 6.47196 0.90747   2
   1  -2   1 6.50756 0.97005   3
  -2   2  -1 4477.43 113.175   3
  -2   2  -1 4501.97 111.227   5
  -2   2  -1 4516.41 114.041   1
  -2   2  -1 4669.84 111.548   2
   2  -2   1 4681.56 111.855   3
   2  -2   1 4510.51 112.057   5
   2  -2   1 4595.49 111.530   2
  -3   2  -1 288.740 8.62206   5
  -3   2  -1 288.270 7.64351   4
  -3   2  -1 293.577 9.30860   2
  -3   2  -1 290.303 8.50895   3
  -3   2  -1 289.854 8.74737   5
  -3   2  -1 294.088 9.18359   1
   3  -2   1 277.798 9.26841   2
   3  -2   1 290.606 8.35197   5
   3  -2   1 290.901 9.05478   1
   3  -2   1 289.535 8.49967   3
   3  -2   1 292.694 7.63941   4
  -4   2  -1 65.8243 3.66567   5
  -4   2  -1 67.8800 3.89375   1
  -4   2  -1 67.0702 2.77676   4
  -4   2  -1 66.6576 3.18549   3
  -4   2  -1 66.2585 3.51928   5
   4  -2   1 64.9445 2.70288   4
   4  -2   1 70.6555 3.24601   3
   4  -2   1 64.8499 3.30455   5
   4  -2   1 68.4697 4.20866   2
   4  -2   1 66.1003 3.86579   1
  -5   2  -1 69.5189 4.03350   3
  -5   2  -1 69.8174 4.14530   5
  -5   2  -1 73.9535 4.45275   5
  -5   2  -1 78.3388 4.75759   1
  -5   2  -1 64.8292 3.35348   4
   5  -2   1 66.5568 4.68956   1
   5  -2   1 74.4423 3.76237   3
   5  -2   1 75.0074 3.33814   4
   5  -2   1 80.4807 5.15013   2
   5  -2   1 67.3155 3.87017   5
  -6   2  -1 42.4342 4.05713   5
  -6   2  -1 42.9689 3.42952   4
  -6   2  -1 42.7301 4.23433   1
  -6   2  -1 44.7308 3.19332   3
  -6   2  -1 33.2846 4.67524   5
   6  -2   1 40.5918 3.11573   4
   6  -2   1 44.1190 3.81829   5
   6  -2   1 38.6823 3.45521   3
   6  -2   1 45.0675 5.02022   2
  -7   2  -1 117.807 5.11751   3
  -7   2  -1 107.999 6.04568   4
  -7   2  -1 112.622 6.82414   5
  -7   2  -1 102.758 6.65062   1
   7  -2   1 117.871 5.47970   4
   7  -2   1 117.902 6.67851   5
   7  -2   1 112.129 5.69645   3
   7  -2   1 117.430 7.74817   2
  -8   2  -1 75.8494 4.52205   3
  -8   2  -1 82.0790 6.82067   1
  -8   2  -1 78.8425 7.07123   5
   8  -2   1 75.6581 5.30021   4
   8  -2   1 85.2348 7.61889   2
  -9   2  -1 3.36157 3.23392   5
  -9   2  -1 1.26058 3.02790   1
   9  -2   1 3.93573 3.49065   2
   9   1  -1 6.98516 3.74551   2
   9   1  -1 23.8402 6.83489   4
  -9  -1   1 11.6639 3.26102   1
  -9  -1   1 13.6037 4.62995   5
   8   1  -1 6.54150 2.51851   4
   8   1  -1 17.5293 5.94072   2
   8   1  -1 22.4352 5.81856   5
  -8  -1   1 4.70649 2.11512   1
  -8  -1   1 8.88239 2.78316   5
   7   1  -1 52.5137 5.36202   2
   7   1  -1 45.9545 4.68728   4
   7   1  -1 42.4100 5.22323   5
  -7  -1   1 44.3443 4.67485   1
  -7  -1   1 43.8720 4.67070   5
  -7  -1   1 49.0005 6.23439   5
   6   1  -1 103.544 5.72214   5
   6   1  -1 97.7831 5.59005   4
   6   1  -1 97.1363 5.96802   2
  -6  -1   1 97.6928 5.65163   1
  -6  -1   1 94.2542 5.92320   5
  -6  -1   1 97.3259 5.64319   5
  -6  -1   1 104.474 6.24836   4
   5   1  -1 488.044 14.8231   2
   5   1  -1 460.849 13.9083   5
   5   1  -1 463.249 14.3593   4
   5   1  -1 445.925 14.3315   1
   5   1  -1 476.166 12.3676   3
   5   1  -1 473.854 14.0608   5
  -5  -1   1 490.061 14.6384   1
  -5  -1   1 459.044 14.1936   5
  -5  -1   1 456.447 14.4350   4
  -5  -1   1 469.350 14.6595   2
   4   1  -1 -0.3819 0.73279   5
   4   1  -1 -0.5977 0.81999   1
   4   1  -1 0.03377 0.90051   2
   4   1  -1 -0.7026 0.74161   4
   4   1  -1 -0.0378 0.52865   3
   4   1  -1 0.58249 0.78170   5
  -4  -1   1 0.39527 0.84591   5
  -4  -1   1 -0.0398 0.72243   1
  -4  -1   1 0.10873 0.76303   5
  -4  -1   1 0.01095 1.04274   2
  -4  -1   1 -0.7058 0.99735   4
   3   1  -1 682.299 18.3832   5
   3   1  -1 708.468 18.3554   5
   3   1  -1 715.117 17.4658   3
   3   1  -1 671.913 18.7295   2
   3   1  -1 691.588 18.5333   1
  -3  -1   1 717.028 18.5375   5
  -3  -1   1 680.471 18.4149   5
  -3  -1   1 710.883 18.6260   2
  -3  -1   1 725.681 18.8415   4
  -3  -1   1 604.771 19.1020   1
   2   1  -1 2778.58 63.3402   1
   2   1  -1 2522.73 62.5942   3
   2   1  -1 2546.13 63.1936   2
   2   1  -1 2590.40 63.1672   5
   2   1  -1 2517.57 63.5032   4
   2   1  -1 2450.88 63.1525   5
  -2  -1   1 2578.12 63.2317   5
  -2  -1   1 2614.49 63.3324   1
  -2  -1   1 2583.67 63.1844   2
  -2  -1   1 2571.56 63.4983   4
   1   1  -1 1445.74 36.0670   4
   1   1  -1 1498.59 35.8371   5
   1   1  -1 1450.77 35.8247   5
   1   1  -1 1456.27 35.7688   1
   1   1  -1 1423.31 35.6114   2
   1   1  -1 1471.16 35.6485   3
  -1  -1   1 1478.37 35.8664   5
  -1  -1   1 1369.03 35.7418   1
  -1  -1   1 1478.47 35.6197   2
  -1  -1   1 1472.17 35.6280   3
   0   1  -1 572.249 14.4291   5
   0   1  -1 592.237 14.2261   2
   0   1  -1 578.219 14.5609   3
   0   1  -1 589.399 14.4679   5
   0   1  -1 556.126 14.3601   4
   0  -1   1 573.778 14.3836   5
   0  -1   1 571.730 14.4749   5
   0  -1   1 581.758 14.3979   1
   0  -1   1 588.149 14.2556   2
   0  -1   1 552.823 14.5213   3
  -1   1  -1 9901.83 237.469   5
  -1   1  -1 9898.92 238.097   2
  -1   1  -1 9449.56 237.599   1
  -1   1  -1 9187.56 236.742   5
  -1   1  -1 9398.49 238.011   3
   1  -1   1 9725.58 236.994   5
   1  -1   1 9999.99 238.175   3
   1  -1   1 9820.80 238.534   2
   1  -1   1 9924.27 238.010   1
  -2   1  -1 2240.70 54.4832   5
  -2   1  -1 2224.95 54.3618   5
  -2   1  -1 2187.43 54.6666   1
  -2   1  -1 2173.59 54.3146   3
  -2   1  -1 2166.65 53.7319   4
  -2   1  -1 2270.04 54.8543   2
   2  -1   1 2169.05 53.7271   4
   2  -1   1 2239.49 54.6389   1
   2  -1   1 2296.70 54.3648   3
   2  -1   1 2199.68 54.3713   5
   2  -1   1 2161.32 54.7682   2
   2  -1   1 2231.36 54.2597   5
  -3   1  -1 68.0896 2.60059   4
  -3   1  -1 65.6518 3.26546   1
  -3   1  -1 68.4350 2.83208   3
  -3   1  -1 57.1650 3.26480   5
  -3   1  -1 68.3475 3.44067   2
  -3   1  -1 67.7164 3.19356   5
   3  -1   1 65.4182 3.26003   1
   3  -1   1 68.7550 2.81380   3
   3  -1   1 67.4336 3.52938   2
   3  -1   1 70.5869 3.10234   5
   3  -1   1 67.2941 2.59019   4
   3  -1   1 63.1632 2.92854   5
  -4   1  -1 280.637 8.85154   5
  -4   1  -1 270.523 8.07173   4
  -4   1  -1 268.269 8.67055   5
  -4   1  -1 277.062 9.36064   2
  -4   1  -1 265.296 8.06918   3
  -4   1  -1 255.941 9.00783   1
   4  -1   1 278.602 8.72049   5
   4  -1   1 280.115 9.12211   1
   4  -1   1 275.609 8.13003   3
   4  -1   1 272.713 9.41715   2
   4  -1   1 273.912 8.42594   5
   4  -1   1 271.909 8.07154   4
  -5   1  -1 138.183 5.96549   5
  -5   1  -1 140.430 5.09119   3
  -5   1  -1 136.351 5.31417   4
  -5   1  -1 125.396 6.49425   2
  -5   1  -1 135.767 5.96491   5
  -5   1  -1 131.089 6.11638   1
   5  -1   1 137.537 5.05697   3
   5  -1   1 139.340 5.80043   5
   5  -1   1 133.860 5.67799   5
   5  -1   1 138.906 6.52256   2
  -6   1  -1 401.840 13.0307   5
  -6   1  -1 390.083 12.2222   4
  -6   1  -1 379.897 13.2113   5
  -6   1  -1 386.032 13.4154   1
  -6   1  -1 378.922 11.5647   3
   6  -1   1 404.056 12.7666   5
   6  -1   1 400.113 11.5596   3
   6  -1   1 403.493 13.9965   2
   6  -1   1 390.650 11.9949   4
  -7   1  -1 8.37853 2.62080   3
  -7   1  -1 15.4132 4.17571   5
  -7   1  -1 15.5971 3.78608   1
  -7   1  -1 7.61374 2.47555   4
  -7   1  -1 8.90407 2.63835   5
   7  -1   1 15.2052 3.29710   4
   7  -1   1 17.4693 3.96085   5
   7  -1   1 14.4777 3.40614   3
   7  -1   1 11.1387 2.87146   2
  -8   1  -1 1.19677 2.42478   5
  -8   1  -1 0.31563 2.02876   1
  -8   1  -1 0.57136 1.70860   3
   8  -1   1 -1.6924 2.40969   2
   8  -1   1 0.57209 1.84095   4
  -9   1  -1 6.12034 2.77750   1
  -9   1  -1 4.80062 3.71480   5
   9  -1   1 3.55168 3.22133   2
   9  -1   1 1.10856 2.73816   4
   9   0  -1 12.5261 4.30148   2
   9   0  -1 11.0394 3.31367   4
  -9   0   1 22.2753 6.53182   1
  -9   0   1 14.6776 3.93856   5
   8   0  -1 18.2189 6.00494   2
   8   0  -1 6.02843 2.46168   4
  -8   0   1 6.28631 2.73312   1
  -8   0   1 6.84064 2.77424   5
   7   0  -1 49.3363 5.29751   2
   7   0  -1 51.0936 4.84265   4
   7   0  -1 48.5208 5.30511   5
  -7   0   1 57.9158 5.23912   1
  -7   0   1 46.1941 4.55954   5
  -7   0   1 39.6114 6.42814   5
   6   0  -1 148.327 6.85554   4
   6   0  -1 156.436 7.72545   2
   6   0  -1 155.208 6.84125   5
  -6   0   1 160.710 7.51336   5
  -6   0   1 153.147 7.01503   5
  -6   0   1 145.299 7.02942   1
  -6   0   1 145.808 7.46486   4
   5   0  -1 479.290 13.8927   5
   5   0  -1 475.314 14.2500   4
   5   0  -1 466.659 14.8529   2
   5   0  -1 458.068 14.4824   1
   5   0  -1 460.730 13.6953   5
  -5   0   1 472.641 14.2006   5
  -5   0   1 471.562 14.1956   5
  -5   0   1 459.780 14.7742   2
  -5   0   1 462.967 14.4549   1
  -5   0   1 465.013 14.1657   4
   4   0  -1 1184.17 31.3855   2
   4   0  -1 1167.13 30.8516   4
   4   0  -1 1181.57 30.5814   5
   4   0  -1 1188.43 30.4287   5
   4   0  -1 1199.02 30.9801   1
  -4   0   1 1169.57 30.7226   5
  -4   0   1 1161.50 30.7490   5
  -4   0   1 1181.31 31.0315   1
  -4   0   1 1171.33 31.2420   2
  -4   0   1 1203.89 30.9365   4
   3   0  -1 149.226 5.30281   1
   3   0  -1 155.566 5.19374   5
   3   0  -1 139.723 5.69741   2
   3   0  -1 154.371 5.35994   4
  -3   0   1 155.222 5.26264   5
  -3   0   1 146.110 5.32923   4
  -3   0   1 153.521 5.25242   5
  -3   0   1 156.167 5.57484   2
   2   0  -1 835.606 20.9464   5
   2   0  -1 814.569 21.2168   4
   2   0  -1 839.018 21.1408   1
   2   0  -1 815.518 21.3326   2
   2   0  -1 809.557 20.9557   5
  -2   0   1 827.501 21.3230   2
  -2   0   1 807.135 21.0024   5
  -2   0   1 840.857 21.2490   4
  -2   0   1 826.553 21.0365   5
  -2   0   1 848.433 21.1867   1
   1   0  -1 1598.12 38.6587   1
   1   0  -1 1634.74 38.8933   2
   1   0  -1 1583.05 38.8871   4
   1   0  -1 1588.74 38.6290   5
  -1   0   1 1515.81 38.6347   1
  -1   0   1 1529.09 38.6225   5
  -1   0   1 1583.65 38.8707   4
  -1   0   1 1618.80 38.8680   2
  -1   0  -1 1833.14 44.5236   3
  -1   0  -1 1854.44 45.3754   5
  -1   0  -1 1873.34 44.4799   1
  -1   0  -1 1864.30 44.4559   5
   1   0   1 1804.92 45.1671   5
   1   0   1 1838.66 44.7255   4
   1   0   1 1825.31 45.8692   2
   1   0   1 1643.08 45.1433   3
   1   0   1 1829.83 44.5990   5
   1   0   1 1863.28 44.4573   1
  -2   0  -1 3194.47 77.0698   5
  -2   0  -1 3055.74 78.1435   3
  -2   0  -1 3249.52 76.8191   4
  -2   0  -1 3215.10 77.3836   2
  -2   0  -1 3019.59 77.9468   5
  -2   0  -1 3136.67 78.8949   1
   2   0   1 3035.01 77.8327   1
   2   0   1 3146.45 77.4234   5
   2   0   1 3283.79 78.5948   3
   2   0   1 3265.31 76.9710   5
   2   0   1 3085.06 77.9510   4
   2   0   1 3184.54 77.3527   2
  -3   0  -1 22.9153 1.85566   5
  -3   0  -1 26.8414 1.64516   3
  -3   0  -1 24.4833 1.70870   4
  -3   0  -1 20.7442 1.98748   2
  -3   0  -1 23.3740 1.89816   5
   3   0   1 22.8481 1.78035   5
   3   0   1 23.1539 1.75966   5
   3   0   1 24.3625 1.61699   3
   3   0   1 21.9307 1.72370   4
   3   0   1 22.3936 1.84750   1
   3   0   1 17.9927 2.48684   2
  -4   0  -1 306.423 9.40149   5
  -4   0  -1 293.500 8.63998   3
  -4   0  -1 300.248 8.99227   4
  -4   0  -1 291.226 9.26505   5
  -4   0  -1 299.243 9.81622   2
  -4   0  -1 290.867 9.56770   1
   4   0   1 269.135 9.37115   1
   4   0   1 295.731 9.84821   2
   4   0   1 297.834 9.13552   5
   4   0   1 299.787 8.62007   3
   4   0   1 304.332 9.03012   4
   4   0   1 301.393 9.28681   5
  -5   0  -1 613.234 18.0126   5
  -5   0  -1 643.107 16.9052   3
  -5   0  -1 624.850 17.9238   5
  -5   0  -1 616.083 18.4824   2
  -5   0  -1 611.541 17.4507   4
  -5   0  -1 628.190 18.3426   1
   5   0   1 634.258 18.2525   1
   5   0   1 625.921 17.4735   4
   5   0   1 621.025 16.7929   3
   5   0   1 623.355 17.5834   5
   5   0   1 632.100 18.7322   2
   5   0   1 626.544 17.8705   5
  -6   0  -1 434.970 13.0108   3
  -6   0  -1 461.826 14.4338   5
  -6   0  -1 443.421 13.8225   4
  -6   0  -1 443.859 14.4498   5
  -6   0  -1 434.477 14.6124   1
   6   0   1 454.550 15.1392   2
   6   0   1 461.410 14.2005   5
   6   0   1 436.212 13.6472   4
   6   0   1 443.686 12.7180   3
  -7   0  -1 1.35827 2.29488   4
  -7   0  -1 3.03885 1.94528   5
  -7   0  -1 0.47201 1.67857   1
  -7   0  -1 -2.0627 2.78474   5
  -7   0  -1 2.73914 1.31525   3
   7   0   1 0.18082 1.26939   4
   7   0   1 1.08640 2.10640   2
   7   0   1 -0.7436 1.69451   3
   7   0   1 1.35879 1.76464   5
  -8   0  -1 1.90737 2.73492   5
  -8   0  -1 4.38349 2.39825   1
  -8   0  -1 -1.6054 1.63221   3
   8   0   1 2.05254 2.53148   2
   8   0   1 2.41846 2.82231   5
   8   0   1 0.57155 2.08037   4
  -9   0  -1 2.99200 3.67829   5
  -9   0  -1 -0.5122 2.86436   1
   9   0   1 -1.5512 2.80971   2
   9   0   1 -2.3954 2.36703   4
   9  -1  -1 -1.6299 3.27741   4
   9  -1  -1 4.21191 4.00918   2
  -9   1   1 0.21678 2.98842   1
  -9   1   1 2.01275 3.18686   5
   8  -1  -1 1.36850 2.72872   2
   8  -1  -1 1.69409 2.38099   4
  -8   1   1 -0.6160 2.11348   5
  -8   1   1 0.52196 2.06436   1
   7  -1  -1 1.07194 1.81244   4
   7  -1  -1 -0.3694 2.10665   2
   7  -1  -1 -0.8093 2.13963   5
  -7   1   1 -0.6034 1.65285   5
  -7   1   1 -1.1296 1.62247   1
  -7   1   1 1.20125 1.90757   5
  -7   1   1 -4.4349 2.74990   4
   6  -1  -1 121.224 5.94169   5
   6  -1  -1 115.851 5.74298   4
   6  -1  -1 120.783 6.85896   2
  -6   1   1 120.467 6.19600   4
  -6   1   1 120.945 6.29482   1
  -6   1   1 116.817 5.98476   5
  -6   1   1 113.441 6.24088   5
   5  -1  -1 254.480 9.45484   1
   5  -1  -1 273.841 10.0102   2
   5  -1  -1 254.743 8.73142   4
   5  -1  -1 248.083 8.49339   5
   5  -1  -1 216.779 10.3791   5
  -5   1   1 266.224 9.69550   2
  -5   1   1 267.992 9.50332   1
  -5   1   1 271.110 8.99215   4
  -5   1   1 275.920 9.21254   5
  -5   1   1 267.005 9.06342   5
   4  -1  -1 49.2150 3.06672   4
   4  -1  -1 54.8150 3.65550   2
   4  -1  -1 54.0755 2.90602   5
   4  -1  -1 54.7344 3.37383   1
   4  -1  -1 42.8626 3.60720   5
  -4   1   1 57.8289 3.32019   5
  -4   1   1 57.0262 3.24111   4
  -4   1   1 53.5744 3.68063   2
  -4   1   1 55.5283 3.24481   5
  -4   1   1 55.4393 3.40103   1
   3  -1  -1 -0.1911 0.53233   5
   3  -1  -1 0.44156 0.49755   5
   3  -1  -1 -0.0127 0.68139   2
   3  -1  -1 -0.0078 0.54640   4
   3  -1  -1 0.39180 0.58954   1
  -3   1   1 0.13767 0.65870   5
  -3   1   1 0.43378 0.72448   2
  -3   1   1 0.00143 0.62735   5
  -3   1   1 0.10995 0.66951   4
  -3   1   1 -0.3074 0.58458   1
   2  -1  -1 2509.37 59.1190   5
   2  -1  -1 2501.29 59.4260   4
   2  -1  -1 2387.48 59.5227   1
   2  -1  -1 2461.57 59.8888   2
   2  -1  -1 2152.26 58.9426   5
  -2   1   1 2101.80 59.6166   2
  -2   1   1 2558.07 59.6391   1
  -2   1   1 2493.07 59.2248   5
  -2   1   1 2520.70 59.2846   5
  -2   1   1 2513.08 59.3918   4
   1  -1  -1 1006.76 25.1835   2
   1  -1  -1 1045.81 24.4838   5
   1  -1  -1 1017.50 24.9004   1
   1  -1  -1 999.898 24.9177   4
   1  -1  -1 1015.41 24.4863   5
  -1   1   1 935.022 24.8423   1
  -1   1   1 983.919 24.5740   5
  -1   1   1 1023.70 24.4603   3
  -1   1   1 982.370 24.5657   5
  -1   1   1 1024.64 24.9293   4
  -1   1   1 997.901 25.1489   2
  -1  -1  -1 1213.33 29.7179   5
  -1  -1  -1 1185.62 29.8710   3
  -1  -1  -1 1155.38 29.8183   2
  -1  -1  -1 1246.50 29.7999   1
  -1  -1  -1 1218.84 29.9424   4
   1   1   1 1234.37 29.7736   1
   1   1   1 1199.26 29.7257   5
   1   1   1 1232.56 29.9618   4
   1   1   1 1200.14 29.8715   3
   1   1   1 1190.67 29.6953   5
   1   1   1 1237.02 29.8679   2
  -2  -1  -1 2790.74 67.8745   5
  -2  -1  -1 2781.12 68.0278   2
  -2  -1  -1 2887.09 67.9993   1
  -2  -1  -1 2758.39 67.8207   5
  -2  -1  -1 2827.78 67.9797   4
  -2  -1  -1 2773.76 67.7772   3
   2   1   1 2774.61 67.7596   3
   2   1   1 2745.25 68.0401   2
   2   1   1 2760.03 67.7972   5
   2   1   1 2762.42 67.9554   1
   2   1   1 2643.42 68.3339   4
  -3  -1  -1 382.222 11.0203   2
  -3  -1  -1 379.414 10.7491   5
  -3  -1  -1 370.330 10.3866   3
  -3  -1  -1 368.679 10.7296   4
   3   1   1 371.026 10.7374   5
   3   1   1 388.719 10.4140   3
   3   1   1 372.416 10.7610   4
   3   1   1 384.911 10.9120   1
   3   1   1 376.837 11.2730   2
   3   1   1 378.766 10.6432   5
  -4  -1  -1 35.9623 2.66747   5
  -4  -1  -1 35.3410 2.27720   3
  -4  -1  -1 36.2280 2.62568   4
  -4  -1  -1 34.4627 2.66585   1
  -4  -1  -1 34.3776 2.72614   5
  -4  -1  -1 34.2062 2.85067   2
   4   1   1 36.7957 2.23025   3
   4   1   1 35.1291 2.68424   5
   4   1   1 32.9497 2.57832   4
   4   1   1 37.1012 2.48158   5
   4   1   1 36.9497 2.96208   2
   4   1   1 35.0794 2.61910   1
  -5  -1  -1 408.245 12.5087   5
  -5  -1  -1 390.738 12.3878   4
  -5  -1  -1 383.763 12.3354   3
  -5  -1  -1 400.385 12.8062   1
  -5  -1  -1 416.499 13.1360   2
  -5  -1  -1 398.983 12.6339   5
   5   1   1 410.668 12.6044   5
   5   1   1 402.353 12.4416   4
   5   1   1 420.574 11.6634   3
   5   1   1 379.834 12.6097   1
   5   1   1 418.692 13.2062   2
   5   1   1 404.713 12.3478   5
  -6  -1  -1 636.971 19.2487   5
  -6  -1  -1 647.696 17.6634   3
  -6  -1  -1 642.677 19.0130   4
  -6  -1  -1 643.739 19.1174   5
  -6  -1  -1 652.633 19.5248   1
   6   1   1 650.538 17.6842   3
   6   1   1 661.905 19.8381   2
   6   1   1 637.462 18.9083   5
   6   1   1 628.403 18.7849   4
   6   1   1 643.552 18.9985   5
  -7  -1  -1 34.0612 5.68730   5
  -7  -1  -1 30.4014 5.28759   4
  -7  -1  -1 24.6543 4.09286   1
  -7  -1  -1 26.1431 3.11012   3
  -7  -1  -1 28.9654 4.67937   5
   7   1   1 19.3804 4.35410   2
   7   1   1 24.5151 3.28478   3
   7   1   1 29.1860 4.07151   4
   7   1   1 34.1999 4.28024   5
  -8  -1  -1 28.9090 3.51389   3
  -8  -1  -1 28.1784 5.79443   5
   8   1   1 18.6317 5.66598   2
   8   1   1 29.0554 4.62318   4
   8   1   1 26.5350 5.86803   5
  -9  -1  -1 37.0475 7.20765   5
  -9  -1  -1 27.7661 5.86707   1
   9   1   1 38.1036 7.40460   2
   9   1   1 33.3368 6.27613   4
 -10  -1  -1 16.2420 4.19029   1
 -10  -1  -1 17.7812 4.98725   5
  10   1   1 13.1955 4.15768   4
  10   1   1 33.2262 9.85267   2
   9  -2  -1 2.79739 3.35566   4
   9  -2  -1 -0.5944 3.83903   2
  -9   2   1 -0.8659 2.74689   1
  -9   2   1 -1.1874 3.09261   5
   8  -2  -1 4.10117 2.33067   4
   8  -2  -1 1.14013 2.80188   2
  -8   2   1 0.80194 2.22008   5
  -8   2   1 -1.0747 2.23622   1
   7  -2  -1 91.1685 5.50022   4
   7  -2  -1 99.6847 7.37308   2
   7  -2  -1 99.6397 5.74311   5
  -7   2   1 79.8858 6.87702   4
  -7   2   1 92.4354 6.46620   1
  -7   2   1 96.4847 6.21695   5
  -7   2   1 93.7163 6.87091   5
   6  -2  -1 28.3800 3.38599   4
   6  -2  -1 22.9467 3.35433   5
   6  -2  -1 25.8496 3.97648   2
  -6   2   1 27.5772 4.12406   4
  -6   2   1 26.8096 3.55613   5
  -6   2   1 30.0614 3.91248   5
  -6   2   1 30.7926 3.90160   1
   5  -2  -1 2.75775 1.33486   5
   5  -2  -1 10.3833 2.92837   1
   5  -2  -1 4.27961 1.63617   2
   5  -2  -1 4.68605 1.18984   4
  -5   2   1 4.46404 1.41870   5
  -5   2   1 4.44558 1.60886   4
  -5   2   1 4.35726 1.55660   1
  -5   2   1 4.24797 1.24580   5
   4  -2  -1 17.6039 1.81603   5
   4  -2  -1 17.7749 2.72274   2
   4  -2  -1 17.8305 1.80683   5
   4  -2  -1 12.0828 2.25132   1
   4  -2  -1 14.1645 1.99643   4
  -4   2   1 15.5570 2.70848   2
  -4   2   1 16.0149 2.15955   5
  -4   2   1 13.2289 1.17884   3
  -4   2   1 12.3621 2.16382   1
  -4   2   1 12.7670 2.15572   5
  -4   2   1 13.9636 2.10048   4
   3  -2  -1 65.6417 2.66440   5
   3  -2  -1 64.0758 3.63860   2
   3  -2  -1 68.0492 2.71161   5
   3  -2  -1 65.3324 3.28997   1
   3  -2  -1 60.0042 2.86464   4
  -3   2   1 65.8510 2.94909   5
  -3   2   1 65.0610 3.65795   2
  -3   2   1 62.0509 2.94908   5
  -3   2   1 66.2471 2.98253   4
  -3   2   1 64.1520 2.32643   3
  -3   2   1 67.1825 3.37237   1
   2  -2  -1 107.788 4.11248   1
   2  -2  -1 118.270 3.40108   5
   2  -2  -1 115.111 3.85052   4
   2  -2  -1 114.370 3.40913   5
   2  -2  -1 117.454 4.45632   2
  -2   2   1 116.003 4.42144   2
  -2   2   1 114.706 3.50561   3
  -2   2   1 112.282 3.61032   5
  -2   2   1 113.423 3.70807   5
  -2   2   1 115.482 4.21112   1
  -2   2   1 116.127 3.83029   4
   1  -2  -1 2845.05 69.8854   4
   1  -2  -1 2782.76 69.6250   2
  -1   2   1 2849.31 70.3547   4
  -1   2   1 2900.59 69.0785   1
  -1   2   1 2763.70 68.8249   5
  -1   2   1 2946.48 69.2121   2
  -1   2   1 2758.72 69.4599   3
  -1   2   1 2746.26 68.2373   5
   0  -2  -1 664.513 17.7156   3
   0  -2  -1 696.992 17.6374   1
   0   2   1 729.563 17.7954   4
   0   2   1 683.863 17.7314   3
   0   2   1 707.405 17.6635   1
   0   2   1 698.325 17.5743   2
  -1  -2  -1 251.286 6.93054   1
  -1  -2  -1 241.479 7.07016   3
  -1  -2  -1 251.005 6.57904   5
  -1  -2  -1 251.958 7.14012   4
  -1  -2  -1 246.537 6.54332   5
  -1  -2  -1 263.466 6.75883   2
   1   2   1 257.041 6.91777   1
   1   2   1 251.035 6.71839   2
   1   2   1 244.362 6.66165   5
   1   2   1 239.677 6.99143   3
   1   2   1 235.232 7.10062   4
   1   2   1 240.285 6.60107   5
  -2  -2  -1 3195.39 77.2186   5
  -2  -2  -1 3173.43 77.4125   3
  -2  -2  -1 3157.65 77.2230   5
  -2  -2  -1 3198.38 77.6547   4
  -2  -2  -1 3151.53 77.9709   2
  -2  -2  -1 3064.73 77.9927   1
   2   2   1 3065.65 77.2673   2
   2   2   1 3226.88 77.2418   5
   2   2   1 3042.66 77.2849   5
   2   2   1 3171.11 78.8979   1
   2   2   1 3280.26 77.4070   3
   2   2   1 3222.98 77.7258   4
  -3  -2  -1 391.676 11.0587   3
  -3  -2  -1 389.468 11.1968   5
  -3  -2  -1 398.213 11.3104   2
  -3  -2  -1 391.184 11.2332   5
  -3  -2  -1 393.750 11.4560   1
  -3  -2  -1 400.952 11.5423   4
   3   2   1 401.044 11.3648   2
   3   2   1 400.405 11.3901   1
   3   2   1 384.489 11.1245   5
   3   2   1 395.914 11.3389   5
  -4  -2  -1 1557.54 39.8484   5
  -4  -2  -1 1513.97 39.7475   5
  -4  -2  -1 1522.31 39.9994   4
  -4  -2  -1 1575.24 39.3765   3
  -4  -2  -1 1593.02 40.2672   1
  -4  -2  -1 1575.56 40.0718   2
   4   2   1 1527.05 39.2290   3
   4   2   1 1538.00 40.1533   4
   4   2   1 1615.46 40.1625   1
   4   2   1 1552.20 40.0794   2
  -5  -2  -1 107.542 5.42651   2
  -5  -2  -1 106.414 4.59406   3
  -5  -2  -1 110.018 5.34135   4
  -5  -2  -1 107.024 5.36063   1
  -5  -2  -1 106.644 5.28496   5
   5   2   1 112.424 5.41280   4
   5   2   1 106.982 4.60308   3
   5   2   1 108.065 5.48542   2
   5   2   1 105.863 5.06389   5
   5   2   1 111.178 5.11461   5
   5   2   1 108.305 5.27275   1
  -6  -2  -1 352.327 11.8368   5
  -6  -2  -1 338.859 11.9383   5
  -6  -2  -1 343.762 10.7473   3
  -6  -2  -1 333.397 12.1433   4
  -6  -2  -1 342.289 12.2047   1
   6   2   1 349.323 11.9878   4
   6   2   1 355.823 10.7819   3
   6   2   1 351.958 12.4006   2
  -7  -2  -1 86.0164 4.54368   3
  -7  -2  -1 85.6570 5.87659   1
  -7  -2  -1 90.1624 6.02129   5
  -7  -2  -1 63.2162 7.46222   5
   7   2   1 91.7449 5.68833   4
   7   2   1 90.1917 4.86547   3
   7   2   1 81.1294 6.00027   5
   7   2   1 87.6353 6.28504   2
  -8  -2  -1 3.67448 2.49316   5
  -8  -2  -1 0.90312 2.11046   1
   8   2   1 -0.2781 2.80687   5
   8   2   1 2.34820 2.45583   4
   8   2   1 0.65324 2.40042   2
  -9  -2  -1 -4.7595 3.11671   5
  -9  -2  -1 -4.4756 2.32007   1
   9   2   1 -0.2369 2.65939   4
   9   2   1 1.59771 3.40027   2
 -10  -2  -1 9.09676 3.80625   1
 -10  -2  -1 2.68882 4.47799   5
  10   2   1 6.69645 3.98647   4
   9  -3  -1 15.6162 4.61217   2
  -9   3   1 12.9558 3.99734   1
   8  -3  -1 1.55678 3.31262   2
   8  -3  -1 2.50935 2.13495   4
  -8   3   1 0.97883 2.94352   5
  -8   3   1 -0.8665 2.43564   1
   7  -3  -1 72.0213 6.71167   2
   7  -3  -1 69.6675 5.06193   4
  -7   3   1 73.3139 6.73359   5
  -7   3   1 73.2754 5.87678   5
  -7   3   1 68.6729 6.25968   1
  -7   3   1 63.5218 6.63503   4
   6  -3  -1 -0.2608 1.21629   4
   6  -3  -1 3.04143 2.29255   2
   6  -3  -1 1.60010 1.39242   5
  -6   3   1 1.38489 1.71976   5
  -6   3   1 -1.4265 1.31498   1
  -6   3   1 -0.8640 1.76347   4
   5  -3  -1 50.3796 3.28744   5
   5  -3  -1 50.7721 4.45261   2
   5  -3  -1 56.6851 3.46872   4
  -5   3   1 55.8932 3.76028   5
  -5   3   1 57.7426 3.68435   4
  -5   3   1 60.1831 3.99139   5
  -5   3   1 57.4070 4.33207   1
  -5   3   1 55.1094 2.57188   3
   4  -3  -1 0.26585 1.03475   2
   4  -3  -1 0.79464 0.69247   5
   4  -3  -1 0.88127 1.29385   1
   4  -3  -1 0.83367 0.72339   5
   4  -3  -1 0.78599 0.84204   4
  -4   3   1 -0.7639 0.79242   5
  -4   3   1 0.57092 0.85258   5
  -4   3   1 1.21054 0.70812   3
  -4   3   1 -0.0945 1.09876   2
  -4   3   1 0.77682 1.01943   4
  -4   3   1 0.76416 0.92175   1
   3  -3  -1 38.0762 2.16662   4
   3  -3  -1 36.2546 3.02009   2
   3  -3  -1 38.7982 1.78758   5
   3  -3  -1 37.2139 1.83398   5
  -3   3   1 38.3258 3.00525   2
  -3   3   1 36.3090 2.16700   5
  -3   3   1 42.1451 2.87269   1
  -3   3   1 38.7084 2.38217   5
  -3   3   1 37.6531 1.97878   3
  -3   3   1 37.3276 2.22185   4
   2  -3  -1 305.758 8.59855   4
  -2   3   1 307.770 8.42978   5
  -2   3   1 304.956 8.67050   3
  -2   3   1 315.100 8.59443   4
  -2   3   1 301.604 9.42368   1
  -2   3   1 315.368 9.45248   2
  -2   3   1 312.763 8.36068   5
   1  -3  -1 -0.8989 0.46565   2
  -1   3   1 0.09118 0.49735   3
  -1   3   1 -0.4241 0.49200   2
  -1   3   1 -0.3828 0.41433   4
  -1   3   1 -0.3201 0.40129   1
  -1   3   1 -0.7655 0.23271   5
  -1   3   1 0.16907 0.38726   5
   0  -3  -1 29.7792 1.73402   1
   0   3   1 28.9064 1.67468   1
   0   3   1 29.0416 1.50074   2
   0   3   1 29.5130 1.70925   3
   0   3   1 28.9525 1.65977   4
  -1  -3  -1 46.6256 2.24101   1
  -1  -3  -1 43.4317 2.29910   3
  -1  -3  -1 47.3855 1.68305   5
  -1  -3  -1 45.3757 1.84316   2
  -1  -3  -1 46.4150 1.67028   5
  -1  -3  -1 44.0938 2.26589   4
   1   3   1 46.1312 1.83984   2
   1   3   1 45.4667 1.82057   5
   1   3   1 47.1824 1.83438   5
   1   3   1 44.3898 2.33310   4
   1   3   1 47.4648 2.41118   3
   1   3   1 45.6385 2.19056   1
  -2  -3  -1 399.699 10.5925   2
  -2  -3  -1 402.738 11.1422   1
  -2  -3  -1 381.360 11.1351   3
  -2  -3  -1 389.368 11.3124   4
  -2  -3  -1 390.534 10.6697   5
   2   3   1 394.118 10.7467   5
   2   3   1 386.078 10.6130   2
   2   3   1 399.536 11.4440   4
   2   3   1 391.662 10.8043   5
   2   3   1 405.406 11.1345   1
   2   3   1 386.428 11.0585   3
  -3  -3  -1 834.741 22.6518   1
  -3  -3  -1 864.652 22.2620   2
  -3  -3  -1 855.182 22.9374   4
  -3  -3  -1 856.419 22.2945   5
  -3  -3  -1 866.923 22.3371   5
   3   3   1 877.963 22.3247   2
   3   3   1 890.931 22.7192   1
   3   3   1 831.467 22.9544   4
   3   3   1 878.232 22.4790   3
   3   3   1 867.770 22.3614   5
   3   3   1 753.531 23.1881   5
  -4  -3  -1 0.31405 0.80986   1
  -4  -3  -1 0.03163 0.97072   4
  -4  -3  -1 0.24211 0.92367   3
  -4  -3  -1 -0.3986 0.84718   2
  -4  -3  -1 0.33548 0.82339   5
  -4  -3  -1 -1.4164 1.01468   5
   4   3   1 -0.1048 0.93364   3
   4   3   1 -0.2988 0.98225   5
   4   3   1 -0.1503 0.80542   5
   4   3   1 0.09253 0.74759   2
   4   3   1 -0.9995 0.91498   1
   4   3   1 0.25646 0.93209   4
  -5  -3  -1 7.65145 2.03263   1
  -5  -3  -1 11.0289 2.53002   5
  -5  -3  -1 9.26530 2.02248   3
  -5  -3  -1 6.56234 1.82739   4
  -5  -3  -1 12.3935 2.63192   5
  -5  -3  -1 6.67275 1.77211   2
   5   3   1 6.07326 1.49379   2
   5   3   1 9.43155 2.64005   5
   5   3   1 9.91922 2.58240   4
   5   3   1 12.8917 2.46666   5
   5   3   1 13.2224 2.40643   3
   5   3   1 8.28797 2.70496   1
  -6  -3  -1 322.251 10.2536   3
  -6  -3  -1 318.631 11.1313   5
  -6  -3  -1 303.883 11.3824   5
  -6  -3  -1 286.151 11.5077   2
  -6  -3  -1 318.566 11.4549   1
   6   3   1 324.039 11.3655   5
   6   3   1 325.324 11.5555   2
   6   3   1 320.681 11.5774   4
   6   3   1 304.748 10.1028   3
   6   3   1 312.947 11.0772   5
  -7  -3  -1 1.67060 4.03463   5
  -7  -3  -1 1.30040 1.72812   3
  -7  -3  -1 0.20015 1.70405   5
  -7  -3  -1 -1.0893 1.47452   1
   7   3   1 -1.3854 1.78333   2
   7   3   1 1.16692 2.24754   5
   7   3   1 -1.8094 1.65362   4
   7   3   1 -1.2860 2.16437   3
  -8  -3  -1 15.5318 3.53267   5
  -8  -3  -1 9.81519 2.40352   1
   8   3   1 16.1462 5.33744   2
   8   3   1 20.5070 5.21118   4
   8   3   1 23.2554 6.25852   5
  -9  -3  -1 65.1617 8.28157   5
  -9  -3  -1 58.4794 6.81402   1
   9   3   1 64.7427 7.00700   4
   9   3   1 64.7571 8.10773   2
 -10  -3  -1 28.4373 7.27941   1
  10   3   1 48.0227 10.0616   4
   8  -4  -1 12.6683 3.85227   2
  -8   4   1 23.8892 5.80823   5
  -8   4   1 14.2546 3.61962   1
   7  -4  -1 25.3645 3.87230   4
   7  -4  -1 30.1287 6.26264   2
  -7   4   1 31.8152 5.26541   1
  -7   4   1 26.2814 4.97967   5
   6  -4  -1 274.887 9.00395   5
   6  -4  -1 285.027 11.9080   2
   6  -4  -1 287.367 9.29245   4
  -6   4   1 273.454 9.46273   4
  -6   4   1 283.011 10.5191   5
  -6   4   1 282.302 10.2418   5
  -6   4   1 293.293 11.4968   1
   5  -4  -1 3.82738 1.71281   2
   5  -4  -1 4.22785 1.15572   5
  -5   4   1 2.36155 1.24943   5
  -5   4   1 8.32412 1.94774   3
  -5   4   1 4.29882 1.78236   1
  -5   4   1 2.72885 1.49249   4
  -5   4   1 2.28818 1.59810   5
   4  -4  -1 64.8047 2.69385   5
   4  -4  -1 67.3583 3.20463   4
   4  -4  -1 66.2595 4.55028   2
   4  -4  -1 60.3086 2.71364   5
  -4   4   1 62.8676 3.33049   4
  -4   4   1 63.2277 3.49033   5
  -4   4   1 57.8251 4.77668   2
  -4   4   1 60.3313 4.14259   1
  -4   4   1 66.2499 3.47868   5
  -4   4   1 64.4293 3.12657   3
   3  -4  -1 96.0765 4.85900   2
   3  -4  -1 100.168 3.76554   4
  -3   4   1 100.427 4.02084   3
  -3   4   1 100.421 3.98545   5
  -3   4   1 102.056 4.82287   1
  -3   4   1 98.5044 3.84865   5
  -3   4   1 101.686 3.80651   4
  -3   4   1 104.371 5.00905   2
   2  -4  -1 197.209 6.98352   2
  -2   4   1 198.395 5.81577   5
  -2   4   1 201.544 7.00487   1
  -2   4   1 200.042 6.53863   3
  -2   4   1 210.743 6.21029   4
  -2   4   1 210.928 7.05754   2
  -2   4   1 204.994 5.92890   5
   1  -4  -1 91.0724 3.71241   2
  -1   4   1 88.1552 2.88243   5
  -1   4   1 91.8189 3.80811   3
  -1   4   1 90.5221 2.78360   5
  -1   4   1 90.7713 3.43190   4
  -1   4   1 92.8989 3.77152   2
  -1   4   1 100.387 3.97044   1
   0  -4  -1 282.687 9.16693   1
   0   4   1 323.136 7.97462   5
   0   4   1 301.345 9.07994   1
   0   4   1 303.802 9.15133   3
   0   4   1 309.619 8.96528   4
   0   4   1 312.314 7.93435   5
   0   4   1 317.887 8.55756   2
  -1  -4  -1 448.734 11.3998   5
  -1  -4  -1 461.235 11.4274   5
  -1  -4  -1 447.168 12.6650   4
   1   4   1 432.882 12.6989   4
   1   4   1 451.230 12.5808   1
   1   4   1 444.169 12.7575   3
   1   4   1 457.791 11.8048   5
   1   4   1 455.635 11.7513   2
  -2  -4  -1 95.1910 3.48494   5
  -2  -4  -1 95.8474 3.50166   5
  -2  -4  -1 99.2460 4.19913   4
  -2  -4  -1 101.443 3.39501   2
  -2  -4  -1 94.8494 3.98945   1
   2   4   1 93.0159 4.35472   4
   2   4   1 90.0342 3.63970   5
   2   4   1 95.1165 3.61282   5
   2   4   1 94.8171 3.94698   1
   2   4   1 98.7197 4.16289   3
   2   4   1 94.1899 3.37496   2
  -3  -4  -1 -0.0465 0.61436   1
  -3  -4  -1 0.07031 0.66530   2
  -3  -4  -1 0.47881 0.94543   3
  -3  -4  -1 -0.6922 0.72449   5
  -3  -4  -1 0.73969 0.84812   4
  -3  -4  -1 0.35249 0.60178   5
   3   4   1 0.88640 0.72235   1
   3   4   1 0.35091 0.75442   5
   3   4   1 -0.1571 0.68801   2
   3   4   1 0.73479 1.00762   4
   3   4   1 -1.1014 0.60117   5
   3   4   1 0.89554 0.90117   3
  -4  -4  -1 -0.7248 0.84932   1
  -4  -4  -1 -0.1900 0.87466   5
  -4  -4  -1 0.02469 0.92145   2
  -4  -4  -1 -1.7888 1.08198   5
  -4  -4  -1 -1.0940 0.92333   4
  -4  -4  -1 0.34723 0.95121   3
   4   4   1 -0.5529 1.06126   5
   4   4   1 0.21030 0.86385   2
   4   4   1 0.19670 1.04197   3
   4   4   1 0.71374 1.19349   5
   4   4   1 -0.7285 1.09289   1
   4   4   1 0.71751 1.17774   4
  -5  -4  -1 21.8036 3.21167   2
  -5  -4  -1 14.3553 3.09393   5
  -5  -4  -1 19.8488 3.38585   4
  -5  -4  -1 13.4812 2.50529   1
  -5  -4  -1 19.2774 3.16675   5
   5   4   1 12.9841 3.12736   1
   5   4   1 11.7977 2.67549   2
   5   4   1 14.5388 2.81474   4
   5   4   1 16.7278 3.01159   5
   5   4   1 12.2498 2.84421   5
   5   4   1 10.6747 2.82697   3
  -6  -4  -1 -1.3307 1.91416   5
  -6  -4  -1 -2.5083 2.24200   2
  -6  -4  -1 3.84480 1.72450   5
  -6  -4  -1 3.79245 1.51101   1
   6   4   1 1.80850 1.80634   5
   6   4   1 11.2137 3.47429   5
   6   4   1 3.49829 1.62641   4
   6   4   1 2.80264 2.01143   3
   6   4   1 4.82438 1.95840   2
  -7  -4  -1 17.1599 3.88048   1
  -7  -4  -1 24.5460 5.26809   5
   7   4   1 25.0615 5.02902   5
   7   4   1 19.3338 4.61915   4
   7   4   1 10.2569 3.06139   5
   7   4   1 21.4589 4.16140   3
   7   4   1 14.3469 4.38345   2
  -8  -4  -1 45.4681 5.42176   1
  -8  -4  -1 36.2238 6.69510   5
   8   4   1 50.2675 7.58864   5
   8   4   1 34.6525 6.17995   2
   8   4   1 31.2516 5.27035   4
  -9  -4  -1 21.4896 5.92508   1
  -9  -4  -1 35.9233 8.89252   5
   9   4   1 21.3728 5.50833   5
   9   4   1 22.8103 4.82997   2
   9   4   1 33.4471 7.78695   4
   8  -5  -1 5.65513 4.06133   2
  -8   5   1 0.20293 2.92777   5
  -8   5   1 5.44624 3.29285   1
   7  -5  -1 86.9095 6.27477   4
   7  -5  -1 66.8861 7.64950   2
  -7   5   1 88.3547 6.22197   5
  -7   5   1 84.5769 7.34522   1
   6  -5  -1 5.65513 2.63477   2
  -6   5   1 13.9882 4.45140   1
  -6   5   1 4.46437 1.63214   5
  -6   5   1 5.81384 1.89161   3
  -6   5   1 7.25411 2.80487   5
  -6   5   1 14.0672 3.63605   4
   5  -5  -1 19.9881 4.22358   2
   5  -5  -1 19.3015 2.35007   4
  -5   5   1 14.9972 2.90688   4
  -5   5   1 11.6350 2.73010   5
  -5   5   1 12.0577 3.22911   1
  -5   5   1 15.2487 3.12313   5
  -5   5   1 16.9182 2.59137   3
   4  -5  -1 56.4189 4.60953   2
   4  -5  -1 47.1941 2.85102   4
  -4   5   1 40.2531 3.82807   1
  -4   5   1 43.8173 2.89529   4
  -4   5   1 48.9681 2.99631   5
  -4   5   1 47.3855 3.24079   5
  -4   5   1 55.8354 7.95473   2
  -4   5   1 47.4577 3.01501   3
   3  -5  -1 251.867 9.08596   2
  -3   5   1 251.754 7.56396   4
  -3   5   1 251.326 8.26853   3
  -3   5   1 252.568 9.30400   2
  -3   5   1 255.871 7.86176   5
  -3   5   1 262.203 9.28230   1
  -3   5   1 255.283 7.70695   5
   2  -5  -1 1.28744 0.92548   2
  -2   5   1 2.76109 1.23824   2
  -2   5   1 5.77348 1.81117   1
  -2   5   1 2.66078 1.02792   1
  -2   5   1 3.34294 1.10964   5
  -2   5   1 4.11358 1.15060   5
  -2   5   1 2.51858 0.81508   4
  -2   5   1 5.70698 1.68634   3
   1  -5  -1 368.651 10.5920   2
  -1   5   1 349.622 10.3172   4
  -1   5   1 365.321 9.51695   5
  -1   5   1 346.267 10.8715   3
  -1   5   1 374.676 11.0539   1
  -1   5   1 358.868 10.5744   2
  -1   5   1 365.212 9.45749   5
   0  -5  -1 2.22521 0.83491   1
   0   5   1 1.55515 0.61769   2
   0   5   1 1.64615 0.83342   1
   0   5   1 1.35693 0.92907   3
   0   5   1 2.76823 1.02582   3
   0   5   1 1.78176 0.50232   5
   0   5   1 1.84391 0.77173   4
   0   5   1 3.53137 0.84254   5
  -1  -5  -1 194.713 7.00059   1
   1   5   1 214.864 7.11649   1
   1   5   1 211.680 7.21064   3
   1   5   1 207.165 5.95464   2
   1   5   1 206.196 7.17023   4
   1   5   1 199.009 6.13549   5
   1   5   1 213.905 6.00580   2
   1   5   1 209.941 6.15361   5
  -2  -5  -1 49.6061 2.30980   5
  -2  -5  -1 48.2105 2.98216   4
  -2  -5  -1 44.4934 2.87052   1
  -2  -5  -1 48.7938 2.30510   5
  -2  -5  -1 45.9290 2.16250   2
   2   5   1 44.8887 2.14412   2
   2   5   1 48.9935 3.34298   4
   2   5   1 47.4169 2.66222   5
   2   5   1 50.5596 2.91106   1
   2   5   1 46.1634 2.53428   5
   2   5   1 49.5665 3.16845   3
  -3  -5  -1 11.5127 1.67622   2
  -3  -5  -1 14.3003 1.73193   5
  -3  -5  -1 7.65030 2.51967   4
  -3  -5  -1 11.8686 1.93809   1
  -3  -5  -1 9.58949 1.95617   5
   3   5   1 11.5438 2.08398   1
   3   5   1 11.3196 2.56596   4
   3   5   1 13.9409 1.94864   5
   3   5   1 12.0965 2.05671   5
   3   5   1 13.1376 1.71769   2
   3   5   1 12.5432 2.43484   3
  -4  -5  -1 70.6914 3.74832   2
  -4  -5  -1 75.4648 3.86941   5
  -4  -5  -1 72.9426 4.44295   4
  -4  -5  -1 61.6411 4.03529   5
  -4  -5  -1 70.2990 4.18359   1
   4   5   1 68.3180 4.05911   5
   4   5   1 70.0829 4.31187   3
   4   5   1 68.1399 3.67386   2
   4   5   1 69.4336 4.53662   4
   4   5   1 58.3677 4.12121   1
   4   5   1 68.9812 4.23748   5
  -5  -5  -1 99.1940 5.40356   5
  -5  -5  -1 91.0833 5.21195   1
  -5  -5  -1 101.096 5.09948   5
  -5  -5  -1 101.681 5.28742   2
   5   5   1 98.2407 5.47868   5
   5   5   1 98.6024 5.36676   3
   5   5   1 98.6620 5.56779   5
   5   5   1 97.0738 4.97466   2
  -6  -5  -1 4.49629 2.38078   2
  -6  -5  -1 6.29180 1.98267   5
  -6  -5  -1 5.68744 1.91817   1
   6   5   1 13.6584 3.78626   5
   6   5   1 6.12409 2.21600   4
   6   5   1 5.81163 1.95654   5
   6   5   1 5.66151 1.83304   2
   6   5   1 12.3881 3.79952   3
  -7  -5  -1 4.08681 2.50929   5
  -7  -5  -1 0.26013 1.86777   1
   7   5   1 4.52742 2.40458   5
   7   5   1 16.7546 5.60156   3
   7   5   1 0.13677 2.02891   2
   7   5   1 -0.8947 3.25747   5
   7   5   1 0.66907 1.95661   4
  -8  -5  -1 2.54051 2.33518   1
  -8  -5  -1 6.92787 3.54286   5
   8   5   1 0.99449 2.79389   2
   8   5   1 6.76298 2.97638   4
   8   5   1 0.30997 3.10947   5
  -9  -5  -1 -4.7801 2.80823   1
   9   5   1 -1.0966 3.51796   4
   9   5   1 -4.5851 3.14183   2
   9   5   1 2.43060 4.95661   5
   8  -6  -1 8.83591 4.61667   2
  -8   6   1 4.81847 3.60133   1
  -8   6   1 5.71177 3.09129   5
   7  -6  -1 4.20391 3.65434   2
  -7   6   1 4.47052 3.01909   1
  -7   6   1 3.42606 2.46263   5
   6  -6  -1 18.7007 5.70755   2
  -6   6   1 15.4197 4.68313   1
  -6   6   1 14.3200 3.25231   3
  -6   6   1 12.4535 3.71798   5
   5  -6  -1 3.59960 2.24400   2
  -5   6   1 5.53746 1.82661   3
  -5   6   1 5.26916 1.76601   5
  -5   6   1 6.08117 2.33564   1
  -5   6   1 4.82613 1.39424   5
   4  -6  -1 188.044 8.53040   2
  -4   6   1 198.629 8.66582   1
  -4   6   1 188.255 6.19275   4
  -4   6   1 185.915 7.17783   3
  -4   6   1 192.662 6.77985   5
   3  -6  -1 101.343 5.50735   2
  -3   6   1 103.603 5.77027   1
  -3   6   1 105.235 6.12838   2
  -3   6   1 105.753 4.40203   5
  -3   6   1 107.486 4.20485   5
  -3   6   1 104.702 4.22772   4
  -3   6   1 110.850 5.10659   3
   2  -6  -1 736.459 20.7231   2
  -2   6   1 750.273 19.3315   5
  -2   6   1 746.813 19.1809   5
  -2   6   1 752.439 20.8128   2
  -2   6   1 700.835 21.0004   1
  -2   6   1 763.893 19.7204   4
  -2   6   1 737.318 20.6974   3
  -2   6   1 763.800 19.7582   4
  -2   6   1 750.867 21.2463   1
   1  -6  -1 51.1883 3.46448   2
  -1   6   1 56.3722 3.51942   3
  -1   6   1 56.2897 3.71913   1
  -1   6   1 61.2033 3.35089   2
  -1   6   1 57.1008 2.39557   5
  -1   6   1 56.9843 2.41943   5
  -1   6   1 57.4455 3.02690   4
  -1   6   1 54.7757 3.09514   4
   0  -6  -1 117.030 5.23264   1
   0   6   1 124.455 4.49777   2
   0   6   1 127.240 5.30856   1
   0   6   1 118.043 5.41832   3
   0   6   1 125.980 5.09619   4
   0   6   1 119.763 5.36322   3
   0   6   1 127.522 4.11641   5
   0   6   1 124.442 4.06685   5
  -1  -6  -1 20.6150 2.19321   1
   1   6   1 20.9680 2.66921   3
   1   6   1 22.1499 1.74923   5
   1   6   1 21.4428 1.61437   2
   1   6   1 22.6182 1.55031   2
   1   6   1 21.8755 1.69443   5
   1   6   1 18.7318 2.30270   1
   1   6   1 20.6644 2.52888   4
  -2  -6  -1 65.8386 3.75344   1
  -2  -6  -1 72.0391 2.90677   5
  -2  -6  -1 75.4099 4.22539   4
  -2  -6  -1 72.8988 2.87893   5
   2   6   1 69.5370 3.42983   5
   2   6   1 68.2880 4.20081   4
   2   6   1 71.2725 3.83432   1
   2   6   1 69.4270 4.33175   3
   2   6   1 65.5147 3.27606   5
   2   6   1 68.3665 2.70185   2
  -3  -6  -1 216.762 8.08271   1
  -3  -6  -1 216.298 6.97845   5
  -3  -6  -1 218.749 6.56771   2
  -3  -6  -1 212.964 6.95549   5
  -3  -6  -1 206.212 8.18550   4
   3   6   1 210.258 6.55031   2
   3   6   1 205.710 7.24231   5
   3   6   1 209.819 7.46701   5
   3   6   1 220.146 8.10576   1
   3   6   1 209.738 8.43526   4
   3   6   1 216.945 8.12076   3
  -4  -6  -1 18.5031 2.71124   5
  -4  -6  -1 10.6654 3.75595   4
  -4  -6  -1 18.3498 2.79029   1
  -4  -6  -1 17.5042 2.37376   2
  -4  -6  -1 14.4620 2.70474   5
   4   6   1 21.5069 3.30330   1
   4   6   1 23.8558 3.44477   3
   4   6   1 14.0709 3.19745   4
   4   6   1 12.2792 3.09521   2
   4   6   1 17.6255 2.79457   5
   4   6   1 20.1333 3.02598   5
  -5  -6  -1 -0.7524 1.21603   1
  -5  -6  -1 -0.2824 1.21483   5
  -5  -6  -1 -1.5983 1.54432   2
   5   6   1 -0.2550 1.29089   2
   5   6   1 -0.3405 1.60567   5
   5   6   1 -0.7831 1.61137   5
   5   6   1 -0.1676 1.48302   4
   5   6   1 2.98265 2.28842   3
  -6  -6  -1 -1.9258 2.47984   2
  -6  -6  -1 1.57280 1.85045   5
  -6  -6  -1 -0.3606 1.46378   1
   6   6   1 -0.0461 1.64815   2
   6   6   1 1.54629 2.59022   5
   6   6   1 -2.5024 1.68422   4
   6   6   1 1.83997 2.04488   5
  -7  -6  -1 11.2537 2.94539   5
  -7  -6  -1 16.5971 4.35054   1
   7   6   1 17.0115 5.07219   2
   7   6   1 10.3023 2.96548   5
   7   6   1 7.20640 2.79560   5
   7   6   1 9.32252 2.90695   4
  -8  -6  -1 24.5628 6.11516   1
  -8  -6  -1 7.29853 3.57421   5
   8   6   1 13.4146 3.69556   2
   8   6   1 9.06731 3.02715   4
   8   6   1 10.9919 4.20136   5
  -9  -6  -1 58.0959 8.43059   1
   9   6   1 45.1234 8.25687   2
   9   6   1 48.2635 10.6079   5
   9   6   1 69.4398 9.32980   4
   7  -7  -1 189.502 12.2955   2
  -7   7   1 167.020 8.74506   5
  -7   7   1 171.241 10.8319   1
   6  -7  -1 7.21502 3.33622   2
  -6   7   1 4.52982 2.01044   5
  -6   7   1 2.47833 2.14144   3
  -6   7   1 2.16176 2.35945   1
   5  -7  -1 85.1123 6.98816   2
  -5   7   1 73.8868 6.06113   1
  -5   7   1 73.9285 6.68068   3
  -5   7   1 82.8508 5.13709   3
  -5   7   1 86.3482 4.79444   5
  -5   7   1 84.6463 5.60533   5
   4  -7  -1 3.70743 2.13826   2
  -4   7   1 0.48643 1.14161   5
  -4   7   1 -0.5736 1.49803   1
  -4   7   1 -1.6171 1.43791   5
  -4   7   1 2.19083 1.46514   3
   3  -7  -1 447.423 14.3821   2
  -3   7   1 442.375 12.3620   4
  -3   7   1 439.143 12.3561   4
  -3   7   1 414.831 14.3456   2
  -3   7   1 449.302 14.7594   1
  -3   7   1 437.868 12.4809   5
  -3   7   1 447.575 13.9552   3
  -3   7   1 432.628 12.8523   5
   2  -7  -1 503.882 15.0047   2
  -2   7   1 500.745 15.1474   2
  -2   7   1 499.997 13.4754   5
  -2   7   1 491.841 15.2661   3
  -2   7   1 489.427 13.9565   4
  -2   7   1 500.540 15.7391   1
   1  -7  -1 104.779 4.67273   2
  -1   7   1 103.942 4.54739   4
  -1   7   1 99.2961 5.25060   3
  -1   7   1 105.087 5.45244   3
  -1   7   1 100.052 4.83130   2
  -1   7   1 100.647 3.78019   5
  -1   7   1 106.857 4.71775   4
  -1   7   1 105.978 3.77394   5
  -1   7   1 90.7437 5.40805   1
   0  -7  -1 0.38473 1.01732   1
   0   7   1 0.08799 1.15637   3
   0   7   1 2.12354 1.15880   4
   0   7   1 0.60467 1.02115   2
   0   7   1 0.50992 0.77055   5
   0   7   1 1.05953 1.51176   3
   0   7   1 0.58726 1.25279   1
   0   7   1 0.65835 0.68378   5
  -1  -7  -1 336.724 10.9173   1
   1   7   1 314.889 8.91431   2
   1   7   1 329.065 10.8917   4
   1   7   1 324.356 8.94971   2
   1   7   1 327.868 9.52772   5
   1   7   1 312.881 9.43491   5
   1   7   1 322.533 11.0322   3
   1   7   1 315.683 10.9473   3
  -2  -7  -1 105.946 3.76850   5
  -2  -7  -1 100.299 5.63379   4
  -2  -7  -1 96.5328 5.13909   1
  -2  -7  -1 112.196 3.76790   5
   2   7   1 95.2434 5.28692   4
   2   7   1 100.044 5.64607   3
   2   7   1 104.446 4.44031   5
   2   7   1 105.334 3.48976   2
   2   7   1 105.597 3.47886   2
   2   7   1 103.535 4.49686   5
  -3  -7  -1 5.70638 1.99262   4
  -3  -7  -1 6.92227 2.29745   1
  -3  -7  -1 7.48242 2.04239   5
   3   7   1 5.93939 2.06356   4
   3   7   1 8.41247 2.35979   5
   3   7   1 3.73139 1.24781   5
   3   7   1 4.54995 1.94803   1
   3   7   1 5.81379 2.25890   3
   3   7   1 8.18406 1.68188   2
  -4  -7  -1 259.064 8.72848   5
  -4  -7  -1 257.976 9.91926   1
  -4  -7  -1 254.828 7.95882   2
   4   7   1 254.285 7.98474   2
   4   7   1 260.284 10.4902   4
   4   7   1 250.946 9.32892   5
   4   7   1 254.691 9.40808   5
  -5  -7  -1 1.93435 1.82045   2
  -5  -7  -1 3.87368 1.85889   5
  -5  -7  -1 2.72005 1.39978   1
   5   7   1 2.96264 1.88016   5
   5   7   1 2.89747 1.93891   4
   5   7   1 1.10743 2.34032   5
   5   7   1 2.98444 1.58296   2
  -6  -7  -1 -0.4402 2.10272   5
  -6  -7  -1 1.10461 2.41693   2
  -6  -7  -1 -1.5518 1.65681   1
   6   7   1 -0.2920 1.68875   2
   6   7   1 -3.5219 1.96283   5
   6   7   1 -2.3735 2.50152   5
   6   7   1 -0.4632 1.76393   4
  -7  -7  -1 -2.4404 2.11680   1
  -7  -7  -1 3.33099 2.89006   5
   7   7   1 0.69915 2.71213   4
   7   7   1 -3.9105 2.23721   2
   7   7   1 -0.4309 2.98680   5
  -8  -7  -1 21.2607 6.88803   1
   8   7   1 15.3650 4.27166   5
   8   7   1 14.4144 3.70688   2
   8   7   1 13.7879 3.59386   4
  -9  -7  -1 14.8835 4.77183   1
   9   7   1 8.37861 4.10620   4
   9   7   1 8.18337 4.13875   2
   9   7   1 7.46105 4.90793   3
   9   7   1 10.4352 5.76340   5
   7  -8  -1 29.5366 9.84150   2
  -7   8   1 55.9115 9.23908   1
  -7   8   1 55.8443 7.14717   5
   6  -8  -1 14.0235 4.44561   2
  -6   8   1 12.4094 2.93587   5
  -6   8   1 21.1902 5.87280   1
  -6   8   1 15.6691 4.88117   3
   5  -8  -1 35.3947 6.38910   2
  -5   8   1 28.6549 4.46963   3
  -5   8   1 37.5432 3.93527   5
  -5   8   1 44.7228 5.93083   1
  -5   8   1 22.1836 5.66498   5
   4  -8  -1 4.59853 2.30526   2
  -4   8   1 9.47060 2.79776   1
  -4   8   1 10.4376 3.10681   5
  -4   8   1 8.03298 2.65779   5
  -4   8   1 10.4451 3.67472   3
   3  -8  -1 5.07175 2.01683   2
  -3   8   1 8.35804 2.34009   1
  -3   8   1 5.71007 1.60608   4
  -3   8   1 7.97281 2.26828   5
  -3   8   1 13.1727 2.74681   5
  -3   8   1 10.3943 3.60256   3
  -3   8   1 9.69838 2.57842   4
   2  -8  -1 19.7589 3.32989   2
  -2   8   1 15.8146 3.56170   1
  -2   8   1 17.2449 2.25560   5
  -2   8   1 18.7471 4.39318   2
  -2   8   1 18.1079 2.17072   5
  -2   8   1 19.6533 2.84442   4
  -2   8   1 18.8235 3.54557   3
  -2   8   1 20.9614 3.01695   4
  -1   8   1 11.6071 3.33441   2
  -1   8   1 11.1227 2.81767   4
  -1   8   1 18.7921 3.51220   3
  -1   8   1 16.4231 2.74979   4
  -1   8   1 14.2333 2.05612   5
  -1   8   1 16.7024 1.96149   5
   0  -8  -1 12.1288 2.66628   1
   0   8   1 10.5700 2.54240   2
   0   8   1 13.6003 1.88545   5
   0   8   1 10.1521 3.13400   3
   0   8   1 13.7443 2.00838   5
   0   8   1 12.1119 2.98376   4
  -1  -8  -1 3.89056 1.40844   1
   1   8   1 3.59218 1.74052   4
   1   8   1 5.01659 1.46732   2
   1   8   1 7.66591 2.19046   5
   1   8   1 4.01450 1.08743   5
   1   8   1 3.69521 0.94976   2
   1   8   1 4.09605 1.73543   3
  -2  -8  -1 106.446 5.89198   1
   2   8   1 107.769 5.88101   3
   2   8   1 110.033 4.95979   5
   2   8   1 113.330 6.34138   4
   2   8   1 106.455 4.95134   5
  -3  -8  -1 61.1486 3.52082   5
  -3  -8  -1 57.9981 4.38922   1
   3   8   1 62.6863 4.28752   5
   3   8   1 56.5749 4.86609   4
   3   8   1 58.2402 3.96417   5
  -4  -8  -1 60.1688 4.15737   5
  -4  -8  -1 54.9854 4.62192   1
   4   8   1 52.8605 3.04242   2
   4   8   1 53.0136 5.03495   4
   4   8   1 55.4407 4.73413   5
   4   8   1 54.4277 4.23128   5
  -5  -8  -1 17.2410 3.57583   2
  -5  -8  -1 19.7996 4.15218   5
  -5  -8  -1 16.2958 3.94098   1
   5   8   1 22.3726 4.59665   5
   5   8   1 14.7790 3.94912   2
   5   8   1 14.6871 4.00496   4
   5   8   1 20.5905 4.50933   5
  -6  -8  -1 19.3387 5.09971   5
  -6  -8  -1 12.2147 4.70131   2
  -6  -8  -1 20.0322 4.63401   1
   6   8   1 19.6069 4.09444   2
   6   8   1 29.2083 8.86189   5
   6   8   1 16.9835 5.04144   4
   6   8   1 15.4523 3.28448   5
  -7  -8  -1 2.77090 2.33765   1
   7   8   1 4.63275 3.23504   4
   7   8   1 1.80546 2.72257   2
   7   8   1 2.73452 3.01189   5
  -8  -8  -1 20.6804 6.83331   1
   8   8   1 16.7765 5.13501   5
   8   8   1 26.9390 7.08014   2
   8   8   1 21.9205 7.31737   3
   6  -9  -1 2.88366 4.21936   2
  -6   9   1 -0.2796 2.50132   5
  -6   9   1 2.04281 3.15962   1
   5  -9  -1 1.71096 3.22835   2
  -5   9   1 3.75267 2.93408   3
  -5   9   1 5.43672 2.03946   5
  -5   9   1 3.23881 2.97680   1
   4  -9  -1 113.898 7.75679   2
  -4   9   1 109.919 6.19440   5
  -4   9   1 115.726 7.97523   1
  -4   9   1 125.799 7.31272   3
  -4   9   1 121.546 5.66695   5
   3  -9  -1 29.0753 4.49979   2
  -3   9   1 41.4098 5.61167   1
  -3   9   1 35.1040 3.26662   5
  -3   9   1 32.8937 3.70146   4
  -3   9   1 34.6133 3.60671   5
  -3   9   1 28.9287 4.68682   3
  -3   9   1 41.1281 4.68495   4
   2  -9  -1 1.98055 1.78475   2
  -2   9   1 2.73565 1.35500   5
  -2   9   1 15.1286 5.37720   2
  -2   9   1 2.19953 1.76698   4
  -2   9   1 2.99313 1.80001   4
  -2   9   1 1.63549 1.96739   1
  -2   9   1 2.17843 1.16340   5
  -1   9   1 114.830 5.94714   2
  -1   9   1 118.610 6.00314   4
  -1   9   1 107.898 5.82112   4
  -1   9   1 117.505 6.70472   3
  -1   9   1 120.234 4.89115   5
  -1   9   1 118.339 4.69211   5
   0   9   1 3.58952 2.05093   3
   0   9   1 0.69201 1.12863   5
   0   9   1 0.84462 1.01042   2
   0   9   1 3.28552 1.82311   4
   0   9   1 -3.0157 1.47082   4
   0   9   1 -2.4485 1.37548   2
  -1  -9  -1 958.376 28.1839   1
   1   9   1 994.382 26.1548   5
   1   9   1 1015.45 28.0764   4
   1   9   1 970.598 24.8143   2
   1   9   1 995.566 28.7227   3
   1   9   1 980.758 24.7981   2
   1   9   1 1001.20 26.2519   5
  -2  -9  -1 65.1642 5.17193   1
   2   9   1 65.0371 4.32267   5
   2   9   1 62.5156 5.32067   3
   2   9   1 72.1647 5.60366   4
   2   9   1 66.5656 4.35007   5
  -3  -9  -1 384.852 11.0112   5
  -3  -9  -1 385.048 13.9082   1
   3   9   1 376.467 12.4661   5
   3   9   1 381.551 12.5080   5
   3   9   1 393.051 14.2187   4
   3   9   1 390.484 14.1167   3
  -4  -9  -1 0.94101 1.76862   1
  -4  -9  -1 -1.6822 1.84794   5
   4   9   1 -2.2062 1.88813   3
   4   9   1 0.42907 2.11004   4
   4   9   1 -1.4306 1.64033   5
   4   9   1 0.55498 1.93878   5
  -5  -9  -1 49.8103 5.33784   5
  -5  -9  -1 48.6153 5.14555   1
   5   9   1 42.8343 6.47380   5
   5   9   1 47.0698 5.23968   5
   5   9   1 51.7097 5.77470   3
   5   9   1 47.0148 6.08674   4
   5   9   1 45.3974 3.33817   2
  -6  -9  -1 3.18359 2.57497   1
   6   9   1 10.7952 3.39070   3
   6   9   1 4.60494 2.53187   5
   6   9   1 14.9052 3.79716   2
   6   9   1 6.78293 2.98310   4
  -7  -9  -1 9.54307 3.36155   1
   7   9   1 17.3567 5.48309   2
   7   9   1 14.7222 4.37351   4
   7   9   1 13.9733 4.40820   3
   7   9   1 8.08271 3.87092   5
  -8  -9  -1 -0.3050 3.30491   1
   8   9   1 -5.7775 4.47922   3
   8   9   1 6.24509 5.33171   5
   8   9   1 1.99501 4.38586   4
   5 -10  -1 -4.3692 3.24426   2
  -5  10   1 0.52451 3.11747   1
  -5  10   1 2.30439 2.31608   5
  -5  10   1 2.71161 3.91996   3
   4 -10  -1 92.7142 8.29317   2
  -4  10   1 86.6455 5.23617   5
  -4  10   1 69.2054 7.76566   1
  -4  10   1 74.7848 5.69438   5
  -4  10   1 88.6975 7.05777   3
   3 -10  -1 23.2177 5.62058   2
  -3  10   1 19.6601 3.24855   5
  -3  10   1 15.5923 3.81660   3
  -3  10   1 18.7121 3.66322   5
  -3  10   1 27.6727 6.06598   1
  -2  10   1 54.7626 12.6981   2
  -2  10   1 30.7056 4.35849   4
  -2  10   1 30.3287 3.38617   5
  -2  10   1 33.0103 3.31957   5
  -2  10   1 33.7709 5.42789   1
  -2  10   1 40.1873 5.68168   3
  -1  10   1 25.2048 3.11497   5
  -1  10   1 16.9802 4.49839   4
  -1  10   1 16.1427 4.21009   4
  -1  10   1 24.5523 2.92374   5
  -1  10   1 25.9147 4.88914   3
  -1  10   1 29.0853 5.36443   2
   0  10   1 2.65673 1.89636   2
   0  10   1 4.47363 2.52653   4
   0  10   1 1.91414 1.28133   2
   0  10   1 8.76081 2.63007   5
   0  10   1 2.77040 2.29989   3
   0  10   1 2.61344 1.64431   5
   0  10   1 -0.0912 1.84393   4
  -1 -10  -1 41.8934 4.75926   1
   1  10   1 47.0031 5.25029   3
   1  10   1 45.6783 3.76201   5
   1  10   1 47.8975 5.22756   4
   1  10   1 43.4295 3.72034   5
  -2 -10  -1 33.0095 4.45897   1
   2  10   1 31.2201 3.77863   5
   2  10   1 25.9011 4.58444   4
   2  10   1 26.3860 3.88481   5
   2  10   1 21.8665 4.60692   3
  -3 -10  -1 32.3239 4.81424   1
   3  10   1 32.7419 4.77099   5
   3  10   1 28.0300 4.43278   5
   3  10   1 28.5034 5.13417   4
   3  10   1 37.7480 5.52991   3
  -4 -10  -1 -0.0580 2.09202   1
   4  10   1 -2.3913 2.45186   5
   4  10   1 0.84534 2.22759   5
   4  10   1 -1.5244 2.62270   3
   4  10   1 2.95029 2.65367   4
  -5 -10  -1 -1.6164 2.58734   1
   5  10   1 0.94948 2.91170   4
   5  10   1 -3.7068 2.91507   3
  -6 -10  -1 35.8123 6.23184   1
   6  10   1 49.3900 7.91582   4
   6  10   1 29.0134 7.11182   5
   6  10   1 31.0008 6.83648   3
  -7 -10  -1 20.1849 6.79114   1
   7  10   1 4.50024 4.63268   3
   7  10   1 0.70396 4.12607   5
   4 -11  -1 -1.2797 3.60828   2
  -4  11   1 1.36892 3.79061   3
  -4  11   1 -1.9275 3.49682   1
  -4  11   1 4.91759 2.18387   5
  -3  11   1 2.54763 3.22643   1
  -3  11   1 6.87118 3.87886   3
  -3  11   1 5.19635 2.49583   5
  -3  11   1 1.86048 1.63927   5
  -2  11   1 0.07489 2.60944   1
  -2  11   1 0.72502 1.52310   5
  -2  11   1 3.71967 3.28803   3
  -2  11   1 2.42857 2.58863   4
  -2  11   1 4.21601 1.96758   5
  -1  11   1 -0.5824 1.61772   2
  -1  11   1 1.62795 1.86729   5
  -1  11   1 5.08538 2.94346   3
  -1  11   1 -0.2527 1.56139   5
  -1  11   1 2.31519 2.53216   4
   0  11   1 -0.5930 1.81223   5
   0  11   1 1.48201 2.48783   4
   0  11   1 1.16128 1.36536   2
   0  11   1 -0.6810 2.79434   3
   0  11   1 3.33923 1.81230   5
  -1 -11  -1 36.0779 4.93998   1
   1  11   1 41.1902 4.13056   5
   1  11   1 39.5347 5.62753   3
   1  11   1 40.6405 6.01540   4
   1  11   1 28.8645 4.31266   5
  -2 -11  -1 6.33010 2.56349   1
   2  11   1 7.93261 2.70214   3
   2  11   1 5.85029 2.49300   5
   2  11   1 4.34743 2.69810   4
   2  11   1 7.48340 2.14695   5
  -3 -11  -1 19.1000 5.05753   1
   3  11   1 40.9535 5.49183   5
   3  11   1 33.8445 6.27186   3
   3  11   1 34.5837 6.67317   4
   3  11   1 29.2473 4.75824   5
  -4 -11  -1 5.76669 3.16506   1
   4  11   1 -0.2441 2.28459   5
   4  11   1 -0.3845 3.12137   4
   4  11   1 -5.0323 2.90669   3
  -5 -11  -1 68.3860 7.98446   1
   5  11   1 62.6944 7.43815   3
   5  11   1 58.4447 7.91989   4
   5  11   1 63.7887 7.30199   5
  -6 -11  -1 8.73214 4.03433   1
   6  11   1 1.43778 3.76538   5
   6  11   1 2.73664 3.84660   4
   6  11   1 -1.0604 4.24873   3
  -7 -11  -1 41.9613 9.79532   1
   7  11   1 23.9575 4.99772   4
   7  11   1 32.8433 9.28543   3
   7  11   1 46.9189 10.4121   5
  -3  12   1 2.18829 2.21829   5
  -3  12   1 -0.3989 4.06088   1
  -3  12   1 2.97945 4.33646   3
  -2  12   1 5.54097 3.50369   1
  -2  12   1 6.86547 4.47937   3
  -1  12   1 8.90522 3.80102   3
  -1  12   1 5.99973 3.24791   4
  -1  12   1 6.11611 2.49973   5
  -1  12   1 17.3690 3.82189   5
   0  12   1 3.13561 2.33061   5
   0  12   1 3.41389 1.86240   5
   0  12   1 5.55746 3.58122   4
   0  12   1 3.55281 3.37921   3
   1  12   1 33.9186 4.74063   5
   1  12   1 17.3352 4.46153   3
   1  12   1 29.2457 7.25753   4
   1  12   1 22.8442 5.48257   5
  -2 -12  -1 20.9689 6.01573   1
   2  12   1 35.4414 5.30794   5
   2  12   1 29.4111 6.51960   3
   2  12   1 25.4059 7.01919   4
  -3 -12  -1 4.21635 3.25063   1
   3  12   1 7.91414 3.94949   4
   3  12   1 6.46290 2.86636   5
   3  12   1 5.81488 3.65213   3
  -4 -12  -1 4.78883 3.55615   1
   4  12   1 3.28490 3.51363   3
   4  12   1 5.75775 4.05117   4
   4  12   1 8.58171 3.19336   5
  -5 -12  -1 13.1913 4.50524   1
   5  12   1 9.49512 4.78753   4
   5  12   1 25.5226 8.15110   5
   5  12   1 5.95619 5.01421   3
  -6 -12  -1 12.6514 4.89984   1
   6  12   1 13.1958 5.78010   4
   6  12   1 4.49777 5.39089   3
   6  12   1 9.20066 4.78346   5
  -1  13   1 4.06713 2.41217   5
  -1  13   1 7.46862 5.28125   3
   0  13   1 10.6107 4.96071   3
   0  13   1 -3.4819 3.98485   4
   0  13   1 0.26131 2.36766   5
   1  13   1 3.53423 4.35412   4
   1  13   1 2.22374 2.49728   5
   1  13   1 4.34542 4.65412   3
  -2 -13  -1 -4.3695 3.25907   1
   2  13   1 -3.1149 4.18913   4
   2  13   1 -1.9792 4.08628   3
   2  13   1 7.17185 3.09009   5
  -3 -13  -1 2.24411 4.06978   1
   3  13   1 10.0992 4.76316   3
   3  13   1 1.52763 2.86034   5
   3  13   1 0.53331 4.29447   4
  -4 -13  -1 2.11974 4.09029   1
   4  13   1 4.11852 5.34979   4
   4  13   1 -6.9066 4.39008   3
   4  13   1 -0.0134 3.49544   5
   2  13  -2 8.54716 4.35481   5
   2  13  -2 -2.9329 4.99989   3
   1  13  -2 14.9966 5.39954   4
   1  13  -2 11.2566 3.93298   5
   1  13  -2 5.94590 6.23689   3
   0  13  -2 71.4717 7.64443   5
   0  13  -2 106.147 12.2101   3
   5  12  -2 46.3158 10.5040   5
   5  12  -2 53.1025 11.6193   4
  -5 -12   2 45.8503 10.0332   1
   4  12  -2 40.9765 9.32170   3
   4  12  -2 24.6091 7.94363   5
  -4 -12   2 31.0650 8.34936   1
   3  12  -2 6.93826 3.98859   4
   3  12  -2 -0.4127 3.17080   5
   3  12  -2 -2.2195 4.20610   3
  -3 -12   2 -5.0142 3.34006   1
   2  12  -2 42.7591 8.06471   4
   2  12  -2 44.7722 9.49689   3
   2  12  -2 39.7513 6.91554   5
   1  12  -2 24.8043 5.54479   5
   1  12  -2 35.8653 8.19099   4
   1  12  -2 32.1855 8.39845   3
   0  12  -2 29.4729 5.64570   5
   0  12  -2 29.5393 7.53300   4
  -1  12  -2 20.1224 5.11744   3
  -1  12  -2 17.0768 4.74237   5
  -2  12  -2 4.36045 3.78191   1
  -2  12  -2 6.69486 4.91223   3
  -2  12  -2 4.86472 2.44894   5
   6  11  -2 1.81742 5.21036   4
   6  11  -2 10.6049 5.67323   3
   6  11  -2 -0.4875 4.39237   5
  -6 -11   2 7.26905 4.27979   1
   5  11  -2 7.06243 4.39831   5
   5  11  -2 4.33104 4.58492   3
  -5 -11   2 6.90378 3.84506   1
   4  11  -2 18.4557 4.04890   4
   4  11  -2 20.0578 3.68394   5
   4  11  -2 24.1509 7.60782   3
  -4 -11   2 16.6683 4.11903   1
   3  11  -2 16.5870 3.60433   5
   3  11  -2 24.0356 6.70942   4
   3  11  -2 30.4842 7.39692   3
  -3 -11   2 26.5330 6.20629   1
   2  11  -2 91.5192 7.85039   4
   2  11  -2 96.1429 8.07171   3
   2  11  -2 91.1790 7.27460   5
  -2 -11   2 94.7257 7.88065   1
   1  11  -2 24.1320 7.16197   3
   1  11  -2 5.68738 2.52859   5
   1  11  -2 3.75142 2.70371   4
   0  11  -2 31.9345 4.70452   5
   0  11  -2 51.9490 7.46096   3
   0  11  -2 37.8036 6.08081   4
  -1  11  -2 2.60459 3.66300   3
  -1  11  -2 2.01679 2.08410   5
  -1  11  -2 5.22083 2.56790   4
  -2  11  -2 16.9004 3.58254   1
  -2  11  -2 15.6326 4.63077   5
  -2  11  -2 6.92785 3.51858   3
  -3  11  -2 69.9726 6.58763   5
  -3  11  -2 80.6839 9.50988   1
  -3  11  -2 75.4951 8.69333   3
  -4  11  -2 9.52099 3.06252   5
  -4  11  -2 2.69837 4.28809   1
  -4  11  -2 9.36042 4.59726   3
   7  10  -2 99.9311 11.9236   5
   7  10  -2 120.928 12.8817   4
   7  10  -2 124.987 11.7911   3
  -7 -10   2 133.411 11.6390   1
   6  10  -2 51.1231 8.63418   3
   6  10  -2 54.8961 10.1730   4
  -6 -10   2 36.5817 8.30722   1
   5  10  -2 2.25580 3.23863   5
   5  10  -2 7.19900 4.17085   3
   5  10  -2 -2.1575 2.98596   4
  -5 -10   2 1.82836 3.01845   1
   4  10  -2 70.3372 7.31748   3
   4  10  -2 55.1030 6.59273   5
   4  10  -2 78.0622 7.66788   4
  -4 -10   2 59.5378 6.67149   1
   3  10  -2 25.8983 5.91185   4
   3  10  -2 27.2584 5.31979   5
   3  10  -2 31.9373 6.09122   3
  -3 -10   2 32.8495 5.63635   1
   2  10  -2 202.366 10.4871   3
   2  10  -2 223.108 9.56492   5
   2  10  -2 191.258 9.37693   5
   2  10  -2 203.140 9.72287   4
  -2 -10   2 220.275 10.3095   1
   1  10  -2 107.204 7.47387   3
   1  10  -2 109.104 7.04368   4
   1  10  -2 112.901 6.51784   5
   1  10  -2 96.5707 6.64248   5
  -1 -10   2 103.818 7.10019   1
   0  10  -2 0.38793 2.43176   3
   0  10  -2 2.61610 1.96481   4
   0  10  -2 2.42773 1.63615   5
   0  10  -2 1.75134 2.12304   5
  -1  10  -2 7.02697 3.23989   3
  -1  10  -2 9.18456 2.56509   5
  -1  10  -2 13.5523 3.62760   5
  -1  10  -2 9.05756 2.33806   4
  -2  10  -2 3.73221 2.52112   5
  -2  10  -2 7.41541 2.23199   5
  -2  10  -2 16.5642 5.40149   1
  -2  10  -2 6.81253 3.42491   3
   2 -10   2 6.19055 2.20354   2
  -3  10  -2 49.6126 7.25310   1
  -3  10  -2 49.9039 6.89457   3
  -3  10  -2 29.8062 4.44799   5
   3 -10   2 44.7920 5.85266   2
  -4  10  -2 104.597 6.83776   5
  -4  10  -2 126.533 10.1558   1
  -4  10  -2 110.092 8.85561   3
   4 -10   2 108.818 8.74809   2
  -5  10  -2 -0.4659 2.42099   5
  -5  10  -2 -2.5935 4.14263   3
  -5  10  -2 -0.5650 3.84323   1
   5 -10   2 0.49144 3.97452   2
   7   9  -2 15.3380 4.97803   3
   7   9  -2 2.43693 3.93945   5
   7   9  -2 7.34169 4.42259   4
  -7  -9   2 5.08952 3.36728   1
   6   9  -2 5.16662 3.79382   5
   6   9  -2 0.90233 3.59135   3
   6   9  -2 23.4825 8.07024   4
  -6  -9   2 0.92308 2.62489   1
   5   9  -2 0.83317 2.71504   4
   5   9  -2 0.59272 2.94769   3
   5   9  -2 5.48702 3.33879   5
  -5  -9   2 2.11120 2.28329   1
   4   9  -2 21.5619 5.57012   4
   4   9  -2 17.2769 5.02980   5
   4   9  -2 16.2616 4.71254   3
   4   9  -2 28.0103 6.43457   5
  -4  -9   2 20.9654 4.99717   1
  -4  -9   2 19.5623 5.54487   5
   3   9  -2 -0.7319 1.93507   4
   3   9  -2 2.39865 2.67699   3
   3   9  -2 -0.2622 2.44481   5
   3   9  -2 -0.6520 1.84311   5
  -3  -9   2 2.94440 2.13323   5
  -3  -9   2 2.42616 2.12775   1
   2   9  -2 -0.0863 1.92207   5
   2   9  -2 0.75255 2.03796   4
   2   9  -2 2.02207 2.12983   3
   2   9  -2 3.40389 2.07338   5
  -2  -9   2 3.84895 1.87560   5
  -2  -9   2 1.56662 1.90279   1
   1   9  -2 25.7897 4.61161   3
   1   9  -2 24.8658 3.94757   5
   1   9  -2 16.4052 3.77699   5
  -1  -9   2 15.1581 5.38560   4
  -1  -9   2 16.4145 4.01465   1
  -1  -9   2 17.6091 3.83182   5
   0   9  -2 3.60168 2.68975   3
   0   9  -2 2.14785 1.31284   5
   0   9  -2 2.27167 1.70703   5
   0   9  -2 3.65176 1.87287   4
  -1   9  -2 2.43279 2.33917   3
  -1   9  -2 2.86088 1.63227   5
  -1   9  -2 2.41974 1.72472   4
  -1   9  -2 3.67141 1.59131   5
  -1   9  -2 0.84529 1.53799   2
   1  -9   2 2.37275 1.29144   2
  -2   9  -2 -1.4812 1.74971   5
  -2   9  -2 -0.4537 2.19193   3
  -2   9  -2 -2.5655 2.51194   2
  -2   9  -2 0.06298 1.53866   5
   2  -9   2 -1.1119 1.62814   2
  -3   9  -2 22.7729 4.51452   5
  -3   9  -2 15.7505 3.77285   5
  -3   9  -2 27.1841 5.66480   1
  -3   9  -2 19.6634 5.19021   3
   3  -9   2 11.9987 4.31003   2
  -4   9  -2 11.8417 3.58181   1
  -4   9  -2 8.14020 2.31909   5
  -4   9  -2 14.8803 5.12648   3
   4  -9   2 20.1855 5.74049   2
  -5   9  -2 1.08878 1.98946   5
  -5   9  -2 -1.8382 3.10940   1
  -5   9  -2 0.34448 3.53496   3
   5  -9   2 0.09436 3.15579   2
  -6   9  -2 57.1834 8.66877   3
  -6   9  -2 59.9594 8.83952   1
   6  -9   2 76.1238 9.67346   2
   8   8  -2 3.63455 4.12370   4
   8   8  -2 0.58685 4.60674   3
   8   8  -2 9.21164 5.93217   5
  -8  -8   2 7.64223 4.19887   1
   7   8  -2 60.9335 8.49246   4
   7   8  -2 68.6901 7.64625   3
   7   8  -2 84.8460 10.2490   5
  -7  -8   2 69.0034 7.27083   1
   6   8  -2 6.34271 3.06314   5
   6   8  -2 2.80230 3.08699   3
   6   8  -2 19.4172 6.73518   4
  -6  -8   2 0.72982 2.42682   1
   5   8  -2 1.21620 2.24621   4
   5   8  -2 2.50851 2.97895   3
   5   8  -2 -2.9367 2.12632   5
   5   8  -2 -2.6360 2.95731   5
  -5  -8   2 1.27741 2.00360   1
  -5  -8   2 1.55805 2.10789   5
   4   8  -2 336.363 12.1172   5
   4   8  -2 311.355 12.5011   4
   4   8  -2 319.129 12.1937   3
   4   8  -2 302.027 11.9466   5
  -4  -8   2 294.089 11.7234   1
  -4  -8   2 278.036 14.3657   5
   3   8  -2 62.2060 5.11213   5
   3   8  -2 67.9095 5.66826   4
   3   8  -2 58.9723 5.17418   3
   3   8  -2 60.3651 5.43315   5
  -3  -8   2 62.4778 4.90604   1
  -3  -8   2 67.3111 4.92590   5
   2   8  -2 42.7818 3.99566   5
   2   8  -2 42.8777 4.09144   5
   2   8  -2 43.0566 4.78451   3
   2   8  -2 43.3573 4.70127   4
  -2  -8   2 42.7319 3.80848   5
  -2  -8   2 44.1936 4.25606   1
   1   8  -2 -0.4725 1.57308   4
   1   8  -2 0.62694 1.70848   3
   1   8  -2 -0.9802 1.22758   5
   1   8  -2 -0.3750 1.38761   5
  -1  -8   2 0.56189 1.34276   1
  -1  -8   2 0.19120 1.95850   4
  -1  -8   2 0.78895 1.37002   5
   0   8  -2 128.702 5.76878   5
   0   8  -2 123.157 5.78340   4
   0   8  -2 133.092 7.14336   3
   0   8  -2 127.022 5.87060   5
   0  -8   2 126.938 6.00951   4
   0  -8   2 126.999 5.16359   5
  -1   8  -2 320.927 10.7142   5
  -1   8  -2 347.649 10.3316   4
  -1   8  -2 320.074 9.82211   2
  -1   8  -2 323.250 10.9412   5
  -1   8  -2 347.671 12.6219   3
   1  -8   2 328.079 9.69269   2
   1  -8   2 331.711 9.50670   5
  -2   8  -2 47.9986 4.78471   2
  -2   8  -2 52.1161 3.65131   5
  -2   8  -2 48.4345 4.87485   3
  -2   8  -2 53.2666 4.03283   5
   2  -8   2 51.2968 3.88310   2
  -3   8  -2 12.2155 3.26405   2
  -3   8  -2 13.2681 3.29828   5
  -3   8  -2 9.40474 2.28656   5
  -3   8  -2 14.1669 4.27695   3
   3  -8   2 9.92276 2.32824   2
  -4   8  -2 -1.3424 2.30335   1
  -4   8  -2 1.57756 1.97289   5
  -4   8  -2 0.33758 1.50936   5
  -4   8  -2 -1.4050 2.20682   3
   4  -8   2 -0.1487 2.15754   2
  -5   8  -2 3.03475 1.86896   5
  -5   8  -2 6.46791 3.40632   3
  -5   8  -2 5.99853 2.65291   1
   5  -8   2 2.46217 2.83892   2
  -6   8  -2 15.3566 3.98457   1
  -6   8  -2 20.6629 4.55539   3
  -6   8  -2 16.8579 3.12062   5
   6  -8   2 18.8109 4.33693   2
  -7   8  -2 24.7864 8.09725   1
  -7   8  -2 29.2230 8.01972   3
  -7   8  -2 25.1372 6.43498   5
   7  -8   2 15.9125 5.47365   2
   8   7  -2 4.27479 3.87172   4
   8   7  -2 6.45856 3.83893   2
   8   7  -2 -2.2070 3.75125   3
   8   7  -2 4.44733 5.17822   5
  -8  -7   2 -1.5796 3.20584   1
   7   7  -2 11.5451 3.68050   4
   7   7  -2 10.0888 2.95397   2
   7   7  -2 9.51903 3.94696   5
   7   7  -2 6.69639 3.10075   3
  -7  -7   2 8.60181 4.13494   5
  -7  -7   2 20.1776 5.71396   1
   6   7  -2 21.1691 5.00560   3
   6   7  -2 24.4937 6.09877   4
   6   7  -2 7.23121 4.28319   5
   6   7  -2 11.0795 2.75761   5
   6   7  -2 16.1292 3.92164   2
  -6  -7   2 12.3973 3.99741   1
  -6  -7   2 16.8542 5.61137   5
   5   7  -2 1.35190 2.26793   5
   5   7  -2 0.18095 1.98334   4
   5   7  -2 0.19472 2.20083   3
   5   7  -2 2.73386 1.31857   2
   5   7  -2 3.08525 2.88859   5
  -5  -7   2 2.09981 2.01946   5
  -5  -7   2 0.25161 1.52530   2
  -5  -7   2 -2.0515 1.52671   1
   4   7  -2 50.2794 4.53499   3
   4   7  -2 46.8808 4.81926   4
   4   7  -2 45.2789 5.16626   5
   4   7  -2 53.9130 5.03757   5
  -4  -7   2 49.5559 4.39681   5
  -4  -7   2 46.8905 4.31366   1
   3   7  -2 30.3805 3.84244   5
   3   7  -2 34.1966 3.94621   5
   3   7  -2 33.3107 4.35199   4
   3   7  -2 34.6438 4.07637   3
  -3  -7   2 30.9389 3.46440   1
   2   7  -2 -2.0487 1.12741   5
   2   7  -2 -1.7888 1.27327   3
   2   7  -2 -0.4680 1.07290   5
   2   7  -2 -1.7454 1.25762   4
  -2  -7   2 -0.8080 1.08014   1
  -2  -7   2 1.50423 1.18799   5
   1   7  -2 -0.6822 1.05738   5
   1   7  -2 -0.0865 1.37137   3
   1   7  -2 2.22529 1.44756   1
   1   7  -2 -0.0555 0.94944   5
  -1  -7   2 0.37817 1.04028   5
  -1  -7   2 0.96979 1.05956   1
  -1  -7   2 1.93408 1.44407   4
   0   7  -2 11.8783 2.20871   5
   0   7  -2 12.1712 2.53812   4
   0   7  -2 12.4966 2.33517   5
   0   7  -2 10.9270 2.84084   3
   0   7  -2 10.6609 2.89707   1
   0  -7   2 14.9938 2.34946   5
   0  -7   2 13.0493 2.66005   4
   0  -7   2 8.43266 2.32135   1
  -1   7  -2 8.76049 2.15775   5
  -1   7  -2 5.08057 1.37535   5
  -1   7  -2 4.67886 1.19433   4
  -1   7  -2 4.83973 1.32136   2
  -1   7  -2 10.1913 3.38436   3
   1  -7   2 8.71323 1.92135   2
   1  -7   2 10.1589 2.33853   5
  -2   7  -2 103.854 5.89361   3
  -2   7  -2 100.714 5.41209   2
  -2   7  -2 105.511 4.76419   5
  -2   7  -2 103.703 5.12358   5
   2  -7   2 107.461 4.24370   5
   2  -7   2 105.484 4.87630   2
  -3   7  -2 23.0307 4.05708   1
  -3   7  -2 13.8168 4.91329   2
  -3   7  -2 14.9404 2.81593   5
  -3   7  -2 17.1490 3.12724   5
  -3   7  -2 17.9818 3.63755   3
   3  -7   2 17.4150 2.67135   5
   3  -7   2 19.8835 3.50130   2
  -4   7  -2 52.6695 4.95167   3
  -4   7  -2 49.3840 4.34415   5
  -4   7  -2 47.9506 4.89352   1
  -4   7  -2 49.9126 5.13169   5
   4  -7   2 50.5623 3.73152   5
   4  -7   2 55.4346 5.04767   2
  -5   7  -2 4.27313 1.85215   5
  -5   7  -2 1.84263 2.25138   1
  -5   7  -2 4.61961 2.44517   3
  -5   7  -2 2.42438 2.23055   5
   5  -7   2 4.86430 2.55268   2
  -6   7  -2 -1.4684 2.25820   1
  -6   7  -2 1.19527 2.67857   3
  -6   7  -2 3.14605 2.26098   5
   6  -7   2 -1.8128 2.87703   2
  -7   7  -2 3.59565 3.79759   3
  -7   7  -2 3.84020 3.38976   1
  -7   7  -2 0.41718 2.61921   5
   7  -7   2 6.11559 4.46635   2
   9   6  -2 3.51432 4.92381   2
  -9  -6   2 5.92822 4.81819   1
   8   6  -2 12.8492 4.15628   4
   8   6  -2 1.67634 3.84657   5
   8   6  -2 6.39851 3.31438   3
   8   6  -2 10.1381 3.66297   2
  -8  -6   2 12.1347 3.79035   1
   7   6  -2 2.98382 3.05725   4
   7   6  -2 4.89709 3.85300   5
   7   6  -2 2.84364 2.61968   3
  -7  -6   2 -0.2022 3.17800   5
  -7  -6   2 -0.3237 2.32348   1
   6   6  -2 16.4729 5.14461   4
   6   6  -2 11.4358 3.80144   3
   6   6  -2 18.8555 3.90512   2
   6   6  -2 12.4507 3.59802   5
   6   6  -2 12.4221 3.06305   5
   6   6  -2 5.06250 3.70172   3
  -6  -6   2 8.66759 3.62144   5
  -6  -6   2 7.84824 2.85721   2
  -6  -6   2 16.2404 4.44028   1
   5   6  -2 1.70491 1.25400   2
   5   6  -2 4.99080 1.91802   3
   5   6  -2 0.93610 1.57798   4
   5   6  -2 0.52398 2.20338   5
   5   6  -2 3.37933 2.45068   3
   5   6  -2 -0.7879 2.21171   5
  -5  -6   2 -0.7412 1.52040   5
  -5  -6   2 0.00438 1.61864   2
  -5  -6   2 1.21970 1.71990   1
   4   6  -2 46.0814 4.26923   5
   4   6  -2 49.3618 4.57170   4
   4   6  -2 40.3182 4.75002   3
   4   6  -2 45.1101 2.64942   2
   4   6  -2 53.6688 4.09264   3
   4   6  -2 50.4481 4.19738   5
  -4  -6   2 48.7497 4.18354   5
  -4  -6   2 48.4212 2.81832   2
  -4  -6   2 46.7966 3.93268   1
   3   6  -2 269.943 9.43824   5
   3   6  -2 262.642 9.74567   1
   3   6  -2 270.882 9.58650   5
   3   6  -2 258.194 9.72367   3
   3   6  -2 265.722 9.69182   3
   3   6  -2 278.540 10.3301   4
  -3  -6   2 261.892 10.2365   4
  -3  -6   2 283.557 9.42333   5
  -3  -6   2 273.336 9.79583   1
  -3  -6   2 270.439 9.29439   5
   2   6  -2 10.1562 2.47542   5
   2   6  -2 13.1163 2.31296   5
   2   6  -2 8.52095 2.57373   4
   2   6  -2 9.46818 2.55833   3
  -2  -6   2 14.8297 3.14920   4
  -2  -6   2 12.1309 2.31674   1
  -2  -6   2 7.25808 1.53900   5
   1   6  -2 153.779 6.73768   3
   1   6  -2 154.590 6.09755   5
   1   6  -2 154.220 6.28651   4
   1   6  -2 158.770 6.05274   5
  -1  -6   2 158.426 5.73453   5
  -1  -6   2 156.465 6.42795   1
  -1  -6   2 157.192 6.34317   4
  -1  -6   2 154.140 5.63176   5
   0   6  -2 28.2811 2.57567   4
   0   6  -2 26.7952 2.84228   1
   0   6  -2 28.8015 2.99952   3
   0   6  -2 30.0500 2.57207   5
   0   6  -2 27.5874 1.49058   2
   0   6  -2 29.1224 2.60945   5
   0  -6   2 27.7305 2.21330   5
   0  -6   2 26.5625 1.44504   2
   0  -6   2 28.4034 2.74587   1
   0  -6   2 29.6836 2.73688   4
   0  -6   2 29.3178 2.46966   5
  -1   6  -2 294.325 8.65844   4
  -1   6  -2 296.466 10.0957   1
  -1   6  -2 288.097 10.3019   3
  -1   6  -2 299.839 9.21933   5
  -1   6  -2 268.917 8.63306   2
  -1   6  -2 289.592 9.29097   5
   1  -6   2 295.002 10.1578   3
   1  -6   2 305.224 8.74578   5
   1  -6   2 297.191 8.65475   2
   1  -6   2 286.981 8.56740   5
   1  -6   2 297.294 8.65248   4
  -2   6  -2 1.38110 1.47983   3
  -2   6  -2 1.47134 1.40797   2
  -2   6  -2 1.27250 0.97807   5
  -2   6  -2 2.09432 1.48589   1
  -2   6  -2 1.17227 0.92586   5
   2  -6   2 0.78901 1.05122   5
   2  -6   2 0.78526 1.12922   2
   2  -6   2 4.47933 1.72828   3
  -3   6  -2 1.73468 1.23695   1
  -3   6  -2 -0.0796 1.72488   2
  -3   6  -2 -0.4264 1.34755   3
  -3   6  -2 -0.0190 1.27714   5
  -3   6  -2 -0.1049 1.11920   5
   3  -6   2 -0.4283 2.37483   3
   3  -6   2 1.28950 1.09582   5
   3  -6   2 -1.9175 1.41786   2
  -4   6  -2 17.3483 2.97526   5
  -4   6  -2 24.8100 3.84127   1
  -4   6  -2 23.6560 3.57126   3
  -4   6  -2 14.6305 3.60239   5
   4  -6   2 21.0140 3.88120   2
   4  -6   2 22.6110 3.05710   5
  -5   6  -2 7.96194 2.20637   1
  -5   6  -2 6.24906 2.55152   5
  -5   6  -2 11.0802 3.20266   5
  -5   6  -2 14.1642 3.94940   3
   5  -6   2 11.4476 3.79578   5
   5  -6   2 6.10111 2.52125   2
  -6   6  -2 -2.5368 1.83992   5
  -6   6  -2 5.09727 2.45816   1
  -6   6  -2 -3.1788 2.09597   3
   6  -6   2 2.18793 2.35760   2
  -7   6  -2 6.21515 3.13107   1
  -7   6  -2 19.5841 5.39610   5
  -7   6  -2 18.3148 5.24059   3
   7  -6   2 7.42992 3.52236   2
  -8   6  -2 1.28607 3.47079   1
  -8   6  -2 0.35163 3.34925   5
   8  -6   2 26.7090 9.07636   2
   9   5  -2 17.2376 4.84241   4
   9   5  -2 39.7880 9.96731   2
  -9  -5   2 28.9827 8.09737   1
   8   5  -2 12.4524 4.33136   5
   8   5  -2 8.66303 3.39032   4
   8   5  -2 16.7879 5.11892   3
   8   5  -2 7.38914 3.28167   2
  -8  -5   2 11.2070 3.34861   1
  -8  -5   2 7.98854 4.18892   5
   7   5  -2 1.28531 2.30194   2
   7   5  -2 -3.8048 2.93135   5
   7   5  -2 0.62439 2.26659   4
   7   5  -2 2.81942 2.27892   3
  -7  -5   2 3.42900 2.27952   1
  -7  -5   2 4.91212 3.06167   5
   6   5  -2 3.51143 2.60538   3
   6   5  -2 5.58662 2.65600   5
   6   5  -2 -0.8848 1.84568   4
   6   5  -2 7.49035 2.22267   2
   6   5  -2 3.89023 1.90179   3
   6   5  -2 18.2048 5.87584   5
  -6  -5   2 3.16498 2.16019   5
  -6  -5   2 3.09017 2.86949   2
  -6  -5   2 9.75875 3.35586   1
   5   5  -2 8.01727 2.39951   3
   5   5  -2 10.5532 2.61681   2
   5   5  -2 14.1864 4.09870   5
   5   5  -2 13.6754 4.16895   5
   5   5  -2 13.5370 3.78930   4
   5   5  -2 14.6751 2.92509   3
  -5  -5   2 13.3661 3.41487   2
  -5  -5   2 12.6308 3.47200   5
  -5  -5   2 14.6939 3.23564   1
   4   5  -2 -0.4146 1.20682   4
   4   5  -2 -0.2031 1.33195   5
   4   5  -2 0.28710 0.98819   2
   4   5  -2 0.29920 1.69812   3
   4   5  -2 0.79750 1.26239   3
   4   5  -2 0.00326 1.20343   5
   4   5  -2 -1.1896 1.52291   1
  -4  -5   2 -0.2234 1.08370   5
  -4  -5   2 -0.2087 1.08043   2
  -4  -5   2 -0.2769 1.23600   5
  -4  -5   2 -1.5622 0.94779   1
   3   5  -2 175.833 5.29200   2
   3   5  -2 181.223 6.89385   5
   3   5  -2 175.500 6.88107   3
   3   5  -2 170.179 6.94618   1
   3   5  -2 181.383 6.91850   3
   3   5  -2 163.027 7.21022   4
   3   5  -2 175.394 6.83859   5
  -3  -5   2 177.020 6.94767   1
  -3  -5   2 176.962 6.89365   5
  -3  -5   2 172.858 7.37623   4
  -3  -5   2 181.513 6.75590   5
  -3  -5   2 176.847 5.32485   2
   2   5  -2 125.950 5.17860   1
   2   5  -2 122.255 5.16792   5
   2   5  -2 112.314 5.22368   3
   2   5  -2 116.682 5.47962   4
   2   5  -2 114.118 4.98707   5
  -2  -5   2 113.520 5.09899   1
  -2  -5   2 115.595 4.82233   5
  -2  -5   2 115.463 4.82496   5
  -2  -5   2 118.235 5.61079   4
   1   5  -2 55.6831 3.22938   1
   1   5  -2 55.3243 3.53323   3
   1   5  -2 55.9825 3.42644   4
   1   5  -2 53.7929 3.12461   5
   1   5  -2 53.2700 3.02820   5
  -1  -5   2 55.8826 2.93577   5
  -1  -5   2 57.3533 3.52955   4
  -1  -5   2 53.1515 3.24999   1
   0   5  -2 41.6224 2.59693   4
   0   5  -2 39.1991 2.78567   1
   0   5  -2 40.9174 2.52701   5
   0   5  -2 42.3860 3.06437   3
   0   5  -2 41.3237 2.63622   5
   0   5  -2 41.0078 1.78800   2
   0  -5   2 42.8324 2.60017   5
   0  -5   2 44.9586 2.35743   5
   0  -5   2 43.3236 3.14150   3
   0  -5   2 40.6800 2.89989   1
   0  -5   2 43.6222 1.81011   2
   0  -5   2 43.5140 2.66471   4
  -1   5  -2 2.17896 0.75915   4
  -1   5  -2 5.41044 1.40925   5
  -1   5  -2 2.47987 0.88302   2
  -1   5  -2 3.43248 0.93438   5
  -1   5  -2 3.11297 1.24087   3
   1  -5   2 3.75375 0.77735   4
   1  -5   2 2.85182 0.95419   5
   1  -5   2 2.53041 1.37453   3
   1  -5   2 1.99003 0.74994   5
   1  -5   2 4.56953 1.37752   2
  -2   5  -2 4.55563 1.32661   5
  -2   5  -2 4.11795 1.21472   2
  -2   5  -2 7.79913 2.01405   1
  -2   5  -2 5.64458 1.68430   5
  -2   5  -2 3.86566 1.28055   3
  -2   5  -2 4.44414 1.28444   1
   2  -5   2 6.29803 1.98393   2
   2  -5   2 6.42452 1.81763   5
   2  -5   2 5.20404 1.81968   3
   2  -5   2 2.99915 0.86502   5
  -3   5  -2 16.5050 2.97975   1
  -3   5  -2 15.4037 3.53984   2
  -3   5  -2 15.4656 2.22525   5
  -3   5  -2 18.1816 2.98090   1
  -3   5  -2 16.0864 2.39324   3
  -3   5  -2 16.4010 2.57347   5
   3  -5   2 14.2261 2.02671   5
   3  -5   2 17.2455 2.82808   2
   3  -5   2 16.5085 3.33501   3
   3  -5   2 19.0713 2.25998   5
  -4   5  -2 22.3216 3.13014   5
  -4   5  -2 25.3226 3.01381   5
  -4   5  -2 22.2715 4.99671   2
  -4   5  -2 22.2906 3.46767   1
  -4   5  -2 23.6509 3.13093   3
   4  -5   2 21.1278 3.67064   2
   4  -5   2 17.4226 4.01281   3
   4  -5   2 29.2248 2.82846   5
  -5   5  -2 2.25277 1.72952   5
  -5   5  -2 3.55802 1.84525   3
  -5   5  -2 3.01216 1.84707   1
  -5   5  -2 0.62585 1.35955   5
   5  -5   2 0.86818 1.78528   2
   5  -5   2 5.65359 2.76504   3
   5  -5   2 1.31732 1.80702   5
  -6   5  -2 16.2496 4.42319   1
  -6   5  -2 21.2729 4.06451   5
  -6   5  -2 18.4898 5.79906   5
  -6   5  -2 18.5552 3.83998   3
   6  -5   2 19.1767 5.26284   2
   6  -5   2 17.3486 4.67299   5
  -7   5  -2 23.2135 4.77920   3
  -7   5  -2 23.5066 5.96924   1
  -7   5  -2 16.3390 3.21881   5
   7  -5   2 17.3075 5.81259   2
  -8   5  -2 49.2755 7.15361   1
  -8   5  -2 48.9867 7.37430   5
   8  -5   2 56.9241 8.52550   2
   9   4  -2 17.2561 4.60364   2
   9   4  -2 20.3723 5.03750   4
  -9  -4   2 35.0407 10.0666   5
   8   4  -2 8.63544 3.41081   4
   8   4  -2 11.0928 3.59137   2
   8   4  -2 -0.2192 3.44706   5
   8   4  -2 26.4300 6.31591   3
  -8  -4   2 4.50373 3.58266   5
  -8  -4   2 4.22148 2.63419   1
   7   4  -2 4.18334 3.12004   5
   7   4  -2 1.58503 2.35234   4
   7   4  -2 -2.6180 2.14003   3
   7   4  -2 -1.8629 1.70493   3
  -7  -4   2 0.28420 1.81561   1
  -7  -4   2 -0.7332 2.62331   5
   6   4  -2 3.88896 1.83926   3
   6   4  -2 4.44287 1.61263   3
   6   4  -2 1.97187 1.77505   2
   6   4  -2 5.62599 2.83070   5
   6   4  -2 1.83932 2.09044   5
   6   4  -2 3.73021 1.97203   4
  -6  -4   2 4.75751 2.29685   5
  -6  -4   2 7.26355 3.00725   5
  -6  -4   2 -3.1642 2.70003   2
  -6  -4   2 0.36337 1.63162   1
   5   4  -2 104.585 5.02041   3
   5   4  -2 100.014 5.77663   5
   5   4  -2 108.259 4.88979   3
   5   4  -2 105.750 5.24588   2
   5   4  -2 108.268 6.30452   4
   5   4  -2 102.724 5.80028   5
  -5  -4   2 98.5451 6.16554   5
  -5  -4   2 115.072 5.77773   1
  -5  -4   2 104.170 5.75540   5
  -5  -4   2 108.943 5.75860   2
   4   4  -2 120.868 5.20694   3
   4   4  -2 118.670 5.64516   5
   4   4  -2 116.603 5.88588   4
   4   4  -2 120.721 5.02770   3
   4   4  -2 115.262 5.64687   5
   4   4  -2 121.999 5.62013   1
   4   4  -2 107.736 4.89910   2
  -4  -4   2 115.881 5.65638   5
  -4  -4   2 113.486 4.92904   2
  -4  -4   2 121.485 5.47212   5
  -4  -4   2 108.988 6.19810   4
  -4  -4   2 107.646 5.30086   1
   3   4  -2 139.350 5.99625   5
   3   4  -2 158.461 6.75816   4
   3   4  -2 166.646 6.10698   3
   3   4  -2 163.488 6.28665   1
   3   4  -2 162.219 6.10362   3
   3   4  -2 164.780 5.31957   2
   3   4  -2 162.534 6.34201   5
  -3  -4   2 166.488 5.35578   2
  -3  -4   2 170.813 6.24170   5
  -3  -4   2 168.920 6.33614   1
  -3  -4   2 164.386 6.17955   5
  -3  -4   2 167.596 6.75420   4
   2   4  -2 171.391 6.27387   3
   2   4  -2 161.015 6.02416   5
   2   4  -2 171.371 6.16218   1
   2   4  -2 171.198 6.11888   5
   2   4  -2 162.182 6.42664   4
  -2  -4   2 174.433 6.10128   5
  -2  -4   2 173.457 4.85595   2
  -2  -4   2 175.716 6.54913   4
  -2  -4   2 180.619 6.08143   5
  -2  -4   2 174.160 6.25841   1
   1   4  -2 198.105 6.49711   5
   1   4  -2 195.520 6.84804   3
   1   4  -2 178.757 6.48061   1
   1   4  -2 194.348 6.52939   5
  -1  -4   2 194.924 6.37748   5
  -1  -4   2 199.870 6.77440   3
  -1  -4   2 197.745 6.27739   5
  -1  -4   2 209.304 6.79561   4
  -1  -4   2 198.260 6.67217   1
   0   4  -2 132.926 4.70694   5
   0   4  -2 126.281 4.56439   4
   0   4  -2 125.134 5.14138   3
   0   4  -2 120.334 4.80829   1
   0   4  -2 128.675 3.80803   2
   0   4  -2 124.896 4.54865   5
   0  -4   2 128.053 4.87839   1
   0  -4   2 127.032 5.07439   3
   0  -4   2 124.511 3.78654   2
   0  -4   2 132.924 4.58602   4
   0  -4   2 131.266 4.43652   5
  -1   4  -2 15.7797 1.26843   4
  -1   4  -2 16.1559 2.14546   3
  -1   4  -2 19.4261 1.85368   1
  -1   4  -2 15.6774 1.64750   5
  -1   4  -2 15.8606 1.59992   5
  -1   4  -2 13.2783 1.62260   2
   1  -4   2 13.4541 2.05012   3
   1  -4   2 16.9005 1.35767   4
   1  -4   2 17.5867 1.66874   2
   1  -4   2 16.8390 1.44924   5
   1  -4   2 16.3316 1.69753   5
  -2   4  -2 36.0304 2.46316   5
  -2   4  -2 36.6293 2.41321   5
  -2   4  -2 36.4788 2.66834   1
  -2   4  -2 33.1492 2.53230   3
  -2   4  -2 34.5187 2.77763   1
  -2   4  -2 35.3685 2.66930   2
   2  -4   2 36.2695 2.41704   5
   2  -4   2 36.8664 2.99652   3
   2  -4   2 34.5480 2.14053   5
   2  -4   2 31.5420 2.96220   2
  -3   4  -2 12.4070 2.12717   5
  -3   4  -2 14.1271 2.82650   2
  -3   4  -2 9.52401 2.13871   3
  -3   4  -2 14.1539 2.53160   1
  -3   4  -2 11.5780 1.88966   5
   3  -4   2 11.6012 2.06641   5
   3  -4   2 14.6990 1.76295   5
   3  -4   2 13.9858 2.48702   2
   3  -4   2 16.0750 2.67083   3
  -4   4  -2 0.56471 1.24462   5
  -4   4  -2 2.03838 1.16618   5
  -4   4  -2 1.49040 1.31715   3
  -4   4  -2 0.63965 1.69623   2
  -4   4  -2 -0.3958 1.15886   1
   4  -4   2 -0.5492 1.67534   3
   4  -4   2 -0.6242 1.25993   2
   4  -4   2 2.68140 1.34085   5
   4  -4   2 1.30935 1.03073   5
  -5   4  -2 4.06963 1.92511   5
  -5   4  -2 6.72543 1.64286   5
  -5   4  -2 6.52655 1.82660   1
  -5   4  -2 7.27497 1.82735   3
   5  -4   2 5.54827 1.80165   5
   5  -4   2 15.5548 3.56253   3
   5  -4   2 12.0469 3.39951   2
  -6   4  -2 3.11172 2.38721   5
  -6   4  -2 5.15646 2.20983   1
  -6   4  -2 2.98560 1.76655   3
  -6   4  -2 4.41984 1.72614   5
   6  -4   2 5.13533 2.24099   5
   6  -4   2 3.79796 2.28854   2
   6  -4   2 -1.4489 2.93394   3
  -7   4  -2 11.2162 3.84906   3
  -7   4  -2 15.2610 5.08599   1
  -7   4  -2 14.8182 4.86156   5
   7  -4   2 11.8600 3.40917   2
  -8   4  -2 7.10710 3.13495   5
  -8   4  -2 0.40801 2.51407   1
  -8   4  -2 4.95141 2.87078   3
   8  -4   2 -3.1712 2.79458   2
  -9   4  -2 -5.3833 3.48347   5
  -9   4  -2 0.63830 3.69681   1
   9  -4   2 -0.5523 4.14229   2
   9   3  -2 49.5782 9.16927   2
   9   3  -2 54.1165 8.73360   4
  -9  -3   2 34.9259 6.76083   1
  -9  -3   2 44.5848 9.14742   5
   8   3  -2 11.1861 3.16605   4
   8   3  -2 4.76771 2.91775   2
   8   3  -2 7.16218 4.25290   5
  -8  -3   2 19.3621 5.24258   1
  -8  -3   2 8.29694 3.24351   5
   7   3  -2 7.44042 2.56696   2
   7   3  -2 5.36371 2.72463   5
   7   3  -2 6.60537 1.89679   3
   7   3  -2 6.57843 1.77117   3
   7   3  -2 4.95172 2.36665   4
  -7  -3   2 6.63480 2.23678   1
  -7  -3   2 7.30989 3.56625   5
  -7  -3   2 1.36381 1.68499   5
   6   3  -2 2.04123 1.47237   3
   6   3  -2 -0.9717 2.52764   5
   6   3  -2 0.66573 1.75872   2
   6   3  -2 0.40284 1.54204   4
  -6  -3   2 4.34254 2.44467   2
  -6  -3   2 2.21566 1.49193   1
  -6  -3   2 0.02353 1.76887   5
  -6  -3   2 2.70473 2.51102   5
   5   3  -2 110.108 5.76593   1
   5   3  -2 112.918 4.60799   3
   5   3  -2 113.284 5.75519   5
   5   3  -2 110.049 5.55685   2
   5   3  -2 114.283 6.23639   4
  -5  -3   2 116.755 5.86110   2
  -5  -3   2 110.930 5.82167   5
  -5  -3   2 96.6929 5.34633   1
   4   3  -2 -0.0237 0.93815   2
   4   3  -2 0.59670 1.12818   1
   4   3  -2 -0.4053 0.91827   5
   4   3  -2 1.63125 0.93669   3
   4   3  -2 -0.5952 1.11096   5
   4   3  -2 -0.4038 1.01883   4
   4   3  -2 0.04487 1.04757   3
  -4  -3   2 1.03343 1.10342   5
  -4  -3   2 1.13997 1.18382   2
  -4  -3   2 -0.6418 1.19598   5
  -4  -3   2 0.06085 1.18522   4
  -4  -3   2 1.04359 0.87870   1
   3   3  -2 670.499 18.1973   5
   3   3  -2 650.862 18.8675   4
   3   3  -2 666.418 17.7898   3
   3   3  -2 663.522 18.2820   5
   3   3  -2 656.401 17.6087   2
   3   3  -2 672.737 17.7566   3
   3   3  -2 670.223 18.2562   1
  -3  -3   2 666.264 18.2883   5
  -3  -3   2 668.199 18.8040   4
  -3  -3   2 689.308 18.3334   5
  -3  -3   2 700.257 18.3503   1
  -3  -3   2 571.258 17.4028   2
   2   3  -2 47.2982 2.75110   5
   2   3  -2 48.3168 2.67609   3
   2   3  -2 48.5468 2.13270   2
   2   3  -2 49.9029 2.74791   1
   2   3  -2 49.8471 2.75518   5
  -2  -3   2 47.5178 2.71457   5
  -2  -3   2 48.8201 2.84136   5
  -2  -3   2 50.3716 2.16535   2
  -2  -3   2 51.3491 3.12546   4
  -2  -3   2 43.6747 2.93034   1
   1   3  -2 14.5035 1.43267   1
   1   3  -2 15.4678 1.54291   4
   1   3  -2 15.1324 1.59949   3
   1   3  -2 14.2173 1.39657   5
  -1  -3   2 12.6363 1.31243   1
  -1  -3   2 15.7439 0.93648   2
  -1  -3   2 17.4326 1.76466   4
  -1  -3   2 16.8330 1.54084   3
  -1  -3   2 17.1630 0.92963   2
  -1  -3   2 15.0921 1.41715   5
  -1  -3   2 16.6295 1.48578   5
   0   3  -2 155.262 4.39480   2
   0   3  -2 148.978 4.91680   5
   0   3  -2 148.789 5.32031   3
   0   3  -2 148.790 5.01513   5
   0   3  -2 147.359 4.85790   4
   0  -3   2 157.267 5.36368   3
   0  -3   2 156.242 4.92709   4
   0  -3   2 153.948 4.85018   5
   0  -3   2 147.715 5.08248   1
   0  -3   2 150.095 4.37439   2
   0  -3   2 156.028 4.98156   5
  -1   3  -2 1080.99 27.6604   5
  -1   3  -2 1107.93 27.4677   2
  -1   3  -2 1048.30 26.8137   4
  -1   3  -2 1027.58 27.6633   5
  -1   3  -2 1125.02 27.9546   1
   1  -3   2 1093.28 28.0548   3
   1  -3   2 1116.85 26.8756   4
   1  -3   2 1076.50 27.4208   2
   1  -3   2 1094.19 27.4033   5
  -2   3  -2 467.071 13.4454   3
  -2   3  -2 475.404 13.1558   5
  -2   3  -2 463.983 13.4382   1
  -2   3  -2 480.300 13.3792   2
  -2   3  -2 470.873 12.9769   5
   2  -3   2 481.267 12.7841   5
   2  -3   2 478.935 13.4126   3
   2  -3   2 454.369 13.4955   2
  -3   3  -2 1476.36 38.6443   5
  -3   3  -2 1539.57 39.3129   2
  -3   3  -2 1494.20 39.1655   1
  -3   3  -2 1535.73 38.8796   3
  -3   3  -2 1501.40 38.5163   5
   3  -3   2 1506.22 38.3382   5
   3  -3   2 1527.83 38.2224   5
   3  -3   2 1528.42 39.2510   2
   3  -3   2 1536.43 38.8418   3
  -4   3  -2 33.4977 2.91094   5
  -4   3  -2 35.4363 3.64088   2
  -4   3  -2 32.5749 3.19724   1
  -4   3  -2 30.6824 2.73691   3
  -4   3  -2 31.5531 2.73991   5
   4  -3   2 31.9397 2.74390   5
   4  -3   2 28.2843 2.43330   5
   4  -3   2 28.5570 3.06846   3
   4  -3   2 35.0749 3.43143   2
  -5   3  -2 -0.7245 1.49629   5
  -5   3  -2 -0.4960 1.09474   3
  -5   3  -2 -1.1761 1.00297   5
  -5   3  -2 1.26130 1.28151   1
   5  -3   2 -1.0345 1.49469   3
   5  -3   2 -0.9464 1.12057   5
   5  -3   2 0.25659 1.33436   2
  -6   3  -2 3.81354 2.08031   5
  -6   3  -2 3.03711 1.49841   3
  -6   3  -2 4.43325 2.03613   1
  -6   3  -2 3.50295 1.68764   5
   6  -3   2 1.75475 1.67154   5
   6  -3   2 -1.2135 2.20929   3
   6  -3   2 1.59292 1.77453   2
  -7   3  -2 1.57533 1.66631   3
  -7   3  -2 0.52703 1.88679   5
  -7   3  -2 1.29367 3.09066   5
  -7   3  -2 3.17033 2.05485   1
   7  -3   2 1.77621 2.32860   5
   7  -3   2 -3.9555 2.98339   3
   7  -3   2 1.38206 2.27490   2
  -8   3  -2 95.5148 7.49563   1
  -8   3  -2 113.516 6.17504   3
  -8   3  -2 98.1885 7.45881   5
   8  -3   2 95.5739 8.63005   2
  -9   3  -2 6.92774 4.12974   5
  -9   3  -2 7.97158 3.53510   1
   9  -3   2 7.47361 3.40707   2
   9   2  -2 4.69290 3.35695   4
   9   2  -2 24.4840 8.62145   2
  -9  -2   2 3.21829 4.71161   5
  -9  -2   2 1.06737 3.22371   1
   8   2  -2 28.6229 7.67885   5
   8   2  -2 32.0858 5.89809   4
   8   2  -2 23.1440 6.02287   2
  -8  -2   2 32.3472 6.19468   5
  -8  -2   2 24.9482 4.73590   1
   7   2  -2 16.8562 4.50541   5
   7   2  -2 18.2957 4.26976   4
   7   2  -2 13.9547 4.94269   2
  -7  -2   2 18.2516 4.02458   1
  -7  -2   2 17.0175 4.68798   5
  -7  -2   2 12.1751 4.28361   5
   6   2  -2 31.2024 4.11015   5
   6   2  -2 29.8653 3.78478   4
   6   2  -2 25.6332 2.15704   3
   6   2  -2 28.9601 3.95466   2
  -6  -2   2 35.8100 4.24133   5
  -6  -2   2 29.9240 3.66789   1
  -6  -2   2 35.2429 4.55417   5
   5   2  -2 17.2741 2.88483   2
   5   2  -2 17.5082 3.09149   5
   5   2  -2 16.4125 3.45824   1
   5   2  -2 10.5155 3.22114   5
   5   2  -2 14.5032 1.86867   3
   5   2  -2 15.4698 3.15206   4
   5   2  -2 14.5493 1.81686   3
  -5  -2   2 17.6918 2.92002   5
  -5  -2   2 16.5311 2.58863   1
  -5  -2   2 19.6404 3.51965   2
  -5  -2   2 15.4063 3.37563   5
  -5  -2   2 18.6351 3.75494   4
   4   2  -2 23.3591 1.82721   3
   4   2  -2 22.6756 2.61063   5
   4   2  -2 25.6527 1.83656   3
   4   2  -2 27.3795 2.55183   1
   4   2  -2 25.1817 2.81308   4
   4   2  -2 27.7454 2.53647   5
   4   2  -2 20.7652 2.50674   2
  -4  -2   2 26.7929 2.93776   2
  -4  -2   2 20.0204 2.98377   4
  -4  -2   2 22.3444 2.58886   5
  -4  -2   2 23.6521 2.89451   5
  -4  -2   2 25.7553 2.34226   1
   3   2  -2 136.518 5.19030   1
   3   2  -2 139.965 4.57552   3
   3   2  -2 139.621 5.06867   2
   3   2  -2 141.505 5.28384   5
   3   2  -2 131.823 5.60730   4
   3   2  -2 141.907 4.56711   3
  -3  -2   2 134.077 5.03148   2
  -3  -2   2 122.028 5.03253   1
  -3  -2   2 132.998 5.25506   5
  -3  -2   2 140.717 5.71449   4
   2   2  -2 727.982 19.1562   3
   2   2  -2 734.892 19.1394   2
   2   2  -2 733.321 19.5210   5
   2   2  -2 745.518 19.5547   5
   2   2  -2 761.586 19.4911   1
  -2  -2   2 744.127 19.6237   5
  -2  -2   2 746.657 19.1217   2
  -2  -2   2 744.979 19.4525   1
  -2  -2   2 748.289 19.5401   5
  -2  -2   2 746.434 19.9705   4
   1   2  -2 178.281 5.68423   5
   1   2  -2 176.768 5.84786   4
   1   2  -2 175.773 5.59296   5
   1   2  -2 181.942 5.67481   3
   1   2  -2 187.086 5.53494   1
  -1  -2   2 187.903 5.90779   4
  -1  -2   2 181.996 5.61834   5
  -1  -2   2 182.896 5.16868   2
  -1  -2   2 189.128 5.75123   5
  -1  -2   2 189.731 5.60934   1
  -1  -2   2 182.171 5.64486   3
   0   2  -2 4.69328 0.82038   5
   0   2  -2 4.94739 0.86407   4
   0   2  -2 3.98806 0.93979   3
   0   2  -2 4.61627 0.89266   5
   0   2  -2 4.50443 0.71804   2
   0   2  -2 3.80083 0.76260   1
   0  -2   2 5.57357 0.86305   4
   0  -2   2 4.90818 0.87262   5
   0  -2   2 4.14659 0.70043   2
   0  -2   2 3.48019 1.00130   3
   0  -2   2 5.83909 0.92961   5
   0  -2   2 4.89896 0.81930   1
  -1   2  -2 920.427 24.3301   3
  -1   2  -2 957.120 23.9631   2
  -1   2  -2 944.923 23.3136   4
  -1   2  -2 938.087 23.9501   5
  -1   2  -2 925.146 24.0398   5
   1  -2   2 955.229 23.9933   5
   1  -2   2 967.380 23.8987   5
   1  -2   2 939.781 23.9723   2
   1  -2   2 962.722 23.3437   4
  -2   2  -2 28.6811 1.95259   5
  -2   2  -2 28.1776 1.87880   5
  -2   2  -2 27.5938 1.95760   3
  -2   2  -2 29.2985 2.11543   1
  -2   2  -2 30.3730 2.08036   2
   2  -2   2 30.4268 1.76509   5
   2  -2   2 30.3681 1.94072   5
   2  -2   2 31.8391 2.02106   3
   2  -2   2 31.1163 2.09901   2
  -3   2  -2 1763.80 43.4540   5
  -3   2  -2 1708.74 43.8829   2
  -3   2  -2 1703.97 43.6741   1
  -3   2  -2 1683.63 43.1692   5
   3  -2   2 1728.20 43.1871   5
   3  -2   2 1730.21 43.9027   2
   3  -2   2 1699.95 43.5780   1
   3  -2   2 1674.25 42.8807   5
   3  -2   2 1759.15 43.3535   3
  -4   2  -2 26.1768 2.31534   3
  -4   2  -2 29.5463 2.80567   1
  -4   2  -2 23.3761 2.95186   2
  -4   2  -2 24.8013 2.34223   5
  -4   2  -2 27.2799 2.77768   5
   4  -2   2 24.7503 2.78570   1
   4  -2   2 28.7741 3.20576   2
   4  -2   2 28.7139 2.59068   3
   4  -2   2 27.1813 2.64485   5
   4  -2   2 25.5531 1.55663   4
   4  -2   2 27.4662 2.47666   5
  -5   2  -2 218.722 9.90812   2
  -5   2  -2 203.935 7.71559   5
  -5   2  -2 204.551 7.31570   3
  -5   2  -2 208.177 8.35514   1
   5  -2   2 207.144 7.39456   3
   5  -2   2 199.248 11.2069   1
   5  -2   2 206.143 7.48834   5
   5  -2   2 210.775 8.65337   2
   5  -2   2 187.539 7.36612   5
   5  -2   2 201.270 6.23740   4
  -6   2  -2 45.3456 4.29523   5
  -6   2  -2 41.0782 3.96718   1
  -6   2  -2 38.3974 3.30579   3
   6  -2   2 42.6299 4.11359   5
   6  -2   2 43.6846 2.82826   4
   6  -2   2 52.0196 3.96318   3
   6  -2   2 38.5768 4.50131   2
  -7   2  -2 3.87120 1.93733   5
  -7   2  -2 4.60508 1.83166   3
  -7   2  -2 1.98973 1.95653   1
   7  -2   2 2.37899 2.15857   2
   7  -2   2 4.21750 1.60274   4
   7  -2   2 0.53177 2.70119   3
  -8   2  -2 2.85980 2.19777   3
  -8   2  -2 0.41612 2.54213   5
  -8   2  -2 1.15404 2.11144   1
   8  -2   2 -0.8129 2.59107   2
   8  -2   2 1.16041 1.82911   4
  -9   2  -2 -3.0234 3.09087   5
  -9   2  -2 -0.3671 2.74859   1
   9  -2   2 3.46312 3.72528   2
   9   1  -2 2.06091 3.42167   4
   9   1  -2 6.30436 4.35110   2
  -9  -1   2 7.19753 3.92596   5
  -9  -1   2 -1.4656 2.71302   1
   8   1  -2 5.31718 3.32049   2
   8   1  -2 8.15535 2.97551   4
  -8  -1   2 5.40581 2.67982   5
  -8  -1   2 3.77362 2.46089   1
   7   1  -2 34.4286 4.80145   4
   7   1  -2 29.5769 4.57995   5
   7   1  -2 23.8844 5.15141   2
  -7  -1   2 23.2453 6.42277   5
  -7  -1   2 31.5722 4.92333   5
  -7  -1   2 28.7301 4.22893   1
   6   1  -2 37.3290 4.23278   5
   6   1  -2 40.2696 4.23565   4
   6   1  -2 36.5849 4.42669   2
  -6  -1   2 45.6461 4.14245   1
  -6  -1   2 43.7836 4.14270   5
   5   1  -2 82.2248 5.06584   1
   5   1  -2 87.2389 4.82138   5
   5   1  -2 94.0654 5.28081   2
   5   1  -2 91.0642 4.85803   5
   5   1  -2 92.6629 5.29333   4
  -5  -1   2 92.5434 4.88131   5
  -5  -1   2 92.3486 4.85161   1
  -5  -1   2 95.5242 5.45436   4
  -5  -1   2 89.8882 5.28300   2
  -5  -1   2 92.6465 5.20352   5
   4   1  -2 20.3007 2.23938   5
   4   1  -2 18.7199 2.38740   4
   4   1  -2 17.5925 2.39876   2
   4   1  -2 20.6691 1.29720   3
   4   1  -2 21.2662 2.39125   1
   4   1  -2 20.8318 2.41754   5
  -4  -1   2 19.0492 2.52810   5
  -4  -1   2 22.4520 2.51583   5
  -4  -1   2 21.5792 2.97087   2
  -4  -1   2 21.2198 2.92827   4
  -4  -1   2 22.3999 2.23177   1
   3   1  -2 112.825 5.97652   2
   3   1  -2 128.204 4.78206   5
   3   1  -2 124.317 5.15076   4
   3   1  -2 127.171 3.84480   3
   3   1  -2 131.786 3.86285   3
   3   1  -2 136.994 4.92432   1
   3   1  -2 128.557 4.74807   5
  -3  -1   2 130.111 4.92777   2
  -3  -1   2 127.367 4.85238   1
  -3  -1   2 128.581 4.92176   5
  -3  -1   2 128.744 5.12738   4
  -3  -1   2 122.576 4.84419   5
   2   1  -2 435.470 11.6192   1
   2   1  -2 422.667 11.6700   5
   2   1  -2 418.570 12.1176   4
   2   1  -2 428.072 11.6549   5
   2   1  -2 426.144 11.7417   2
   2   1  -2 430.585 11.0802   3
  -2  -1   2 444.358 11.7562   2
  -2  -1   2 438.871 11.7707   5
  -2  -1   2 427.284 11.7339   5
  -2  -1   2 422.339 12.0884   4
  -2  -1   2 401.395 11.5428   1
   1   1  -2 47.4280 2.05095   5
   1   1  -2 45.8399 2.25989   4
   1   1  -2 48.2872 1.95486   3
   1   1  -2 49.9220 1.91223   1
  -1  -1   2 44.8004 1.85380   1
  -1  -1   2 48.2594 2.31178   4
  -1  -1   2 49.8667 2.14808   5
  -1  -1   2 48.0531 2.10251   5
  -1  -1   2 47.9860 1.93845   3
  -1  -1   2 47.6023 1.98693   2
   0   1  -2 7769.45 188.192   5
   0   1  -2 7536.00 186.869   1
   0   1  -2 7210.40 187.130   3
   0   1  -2 7684.16 187.446   4
   0   1  -2 7658.65 187.206   2
   0  -1   2 7426.38 186.441   1
   0  -1   2 7744.95 187.152   5
   0  -1   2 7681.83 188.335   5
   0  -1   2 7560.83 187.440   2
   0  -1   2 7787.51 186.850   4
   0  -1   2 7777.43 188.034   3
  -1   1  -2 44.3785 1.67282   4
  -1   1  -2 43.0431 1.90087   1
  -1   1  -2 47.7534 2.08484   2
  -1   1  -2 44.9227 1.95886   5
  -1   1  -2 45.5209 2.17831   3
   1  -1   2 46.6308 1.97173   5
   1  -1   2 43.5177 2.06053   2
   1  -1   2 44.1677 1.67061   4
   1  -1   2 46.9992 2.14292   3
   1  -1   2 43.7532 2.04742   5
  -2   1  -2 464.583 12.4641   5
  -2   1  -2 461.206 12.6340   3
  -2   1  -2 480.214 12.6482   5
  -2   1  -2 472.674 12.8557   2
  -2   1  -2 453.030 12.5710   1
   2  -1   2 473.321 12.8840   2
   2  -1   2 467.240 12.4077   5
   2  -1   2 475.368 11.7683   4
   2  -1   2 406.795 12.4051   1
   2  -1   2 470.352 12.6297   3
   2  -1   2 467.252 11.7608   4
   2  -1   2 468.051 12.5689   5
  -3   1  -2 74.6341 3.29065   3
  -3   1  -2 72.7585 3.50155   1
  -3   1  -2 76.0171 3.74030   2
  -3   1  -2 70.4534 3.30924   5
   3  -1   2 74.8244 3.26758   3
   3  -1   2 74.5421 3.33279   5
   3  -1   2 72.9252 2.69160   4
   3  -1   2 72.2765 3.47731   1
   3  -1   2 70.9098 3.81450   2
   3  -1   2 76.5269 3.25237   5
  -4   1  -2 15.9612 2.35584   5
  -4   1  -2 15.7762 2.10328   5
  -4   1  -2 16.8726 2.23309   1
  -4   1  -2 14.6883 1.58751   4
  -4   1  -2 16.7775 2.50650   2
  -4   1  -2 15.6785 1.94556   3
   4  -1   2 17.2758 1.62052   4
   4  -1   2 16.2825 1.96316   3
   4  -1   2 16.0755 2.22103   5
   4  -1   2 15.5651 2.26770   5
   4  -1   2 15.6825 2.58445   2
   4  -1   2 17.9743 2.25968   1
  -5   1  -2 20.5638 2.73117   1
  -5   1  -2 16.4479 3.26759   2
  -5   1  -2 18.0584 3.23389   5
  -5   1  -2 14.1123 2.61498   5
  -5   1  -2 17.6073 2.16632   4
  -5   1  -2 16.6629 2.23881   3
   5  -1   2 11.5449 3.01375   5
   5  -1   2 20.9269 2.52029   3
   5  -1   2 24.1692 3.13405   1
   5  -1   2 13.2675 2.92967   2
   5  -1   2 14.9287 2.12317   4
   5  -1   2 19.5079 2.61741   5
  -6   1  -2 114.753 6.79437   5
  -6   1  -2 117.932 5.23362   3
  -6   1  -2 123.465 6.32742   5
  -6   1  -2 119.794 5.35280   4
  -6   1  -2 118.656 6.38661   1
   6  -1   2 120.599 6.14066   5
   6  -1   2 116.753 5.46929   3
   6  -1   2 120.144 7.05092   2
   6  -1   2 117.330 4.99143   4
  -7   1  -2 67.7425 6.75939   5
  -7   1  -2 58.4822 5.01732   1
  -7   1  -2 58.0350 5.17750   5
  -7   1  -2 56.8969 4.76112   4
  -7   1  -2 62.7409 4.27942   3
   7  -1   2 56.2182 3.91763   4
   7  -1   2 64.4906 6.07499   2
   7  -1   2 61.9308 5.06910   5
   7  -1   2 60.9671 4.86773   3
  -8   1  -2 23.4618 4.85196   1
  -8   1  -2 27.6946 3.94716   3
  -8   1  -2 39.0887 6.21035   5
   8  -1   2 31.6237 6.14512   2
   8  -1   2 21.5853 3.76856   4
  -9   1  -2 2.23939 2.58149   1
  -9   1  -2 1.34540 3.16644   5
   9  -1   2 -4.4614 3.20139   2
   9   0  -2 17.5882 4.06760   4
   9   0  -2 36.0252 8.76472   2
  -9   0   2 13.9325 3.93506   5
  -9   0   2 10.5392 3.49542   1
   8   0  -2 -2.1649 2.62456   2
   8   0  -2 6.03686 2.88664   4
  -8   0   2 1.92000 2.25263   1
  -8   0   2 -1.9068 2.37467   5
   7   0  -2 0.52521 1.80569   4
   7   0  -2 -0.5000 2.20383   2
   7   0  -2 -0.3090 2.92937   5
  -7   0   2 -0.8443 1.75442   1
  -7   0   2 -0.7605 1.71125   5
  -7   0   2 4.95609 2.90229   5
   6   0  -2 4.47870 1.76619   2
   6   0  -2 11.9590 3.28965   5
   6   0  -2 3.03288 1.49143   4
  -6   0   2 4.28762 1.49721   5
  -6   0   2 3.81841 2.54313   4
  -6   0   2 10.9134 3.05940   1
  -6   0   2 6.71884 2.10780   5
   5   0  -2 56.7460 4.07874   4
   5   0  -2 55.8162 4.42256   2
   5   0  -2 56.0147 3.74102   5
   5   0  -2 45.1113 4.17565   1
   5   0  -2 46.5321 3.35411   5
  -5   0   2 55.8521 3.88505   5
  -5   0   2 45.8899 4.53176   2
  -5   0   2 56.6449 3.76712   5
  -5   0   2 53.4495 3.70529   1
  -5   0   2 58.6146 4.30527   4
   4   0  -2 84.5956 4.48652   2
   4   0  -2 85.4525 4.22021   1
   4   0  -2 88.5807 3.93489   5
   4   0  -2 85.1047 3.98608   5
   4   0  -2 82.9700 4.27146   4
  -4   0   2 76.9449 4.04206   1
  -4   0   2 87.7481 4.19511   5
  -4   0   2 87.0884 4.60348   2
  -4   0   2 88.5277 4.24256   5
  -4   0   2 83.5124 4.35765   4
   3   0  -2 99.7657 3.85141   5
   3   0  -2 102.806 4.50903   2
   3   0  -2 99.3588 4.34730   4
   3   0  -2 105.781 4.10924   1
   3   0  -2 100.141 3.92019   5
  -3   0   2 105.043 4.45184   2
  -3   0   2 107.470 4.42563   4
  -3   0   2 100.183 4.08330   5
  -3   0   2 88.0864 4.43388   1
  -3   0   2 98.8746 4.01424   5
   2   0  -2 32.4999 1.81414   1
   2   0  -2 33.5473 1.73312   5
   2   0  -2 30.0387 1.98735   2
   2   0  -2 34.7473 2.05691   4
  -2   0   2 33.4365 1.89390   5
  -2   0   2 31.8752 2.05402   4
  -2   0   2 32.4155 1.76152   1
  -2   0   2 33.8801 1.90473   5
  -2   0   2 32.0572 1.97172   2
   1   0  -2 2977.21 73.5862   1
   1   0  -2 3035.16 73.5625   3
   1   0  -2 3069.46 73.8078   4
   1   0  -2 2938.62 73.2858   5
   1   0  -2 2922.53 75.1777   2
  -1   0   2 3121.76 73.7877   4
  -1   0   2 2996.03 73.6214   1
  -1   0   2 2988.63 73.3377   3
  -1   0   2 3006.83 74.5279   5
  -1   0   2 3039.95 75.1309   2
  -1   0   2 3060.74 73.3712   5
   0   0  -2 1646.39 40.2035   3
   0   0  -2 1663.01 40.3453   4
   0   0  -2 1607.68 40.0393   5
   0   0  -2 1604.74 40.0989   5
   0   0  -2 1648.82 40.2793   2
   0   0   2 1618.40 40.4679   5
   0   0   2 1628.04 40.2705   4
   0   0   2 1678.12 40.1840   3
   0   0   2 1644.03 40.0505   5
   0   0   2 1628.98 40.6624   2
  -1   0  -2 4716.24 114.811   2
  -1   0  -2 4641.62 114.115   5
  -1   0  -2 4660.50 114.375   4
  -1   0  -2 4306.84 114.957   3
  -1   0  -2 4510.27 113.164   1
  -1   0  -2 4815.72 114.993   5
   1   0   2 4652.49 114.194   4
   1   0   2 4704.91 113.872   1
   1   0   2 4821.74 114.052   5
   1   0   2 4591.15 114.953   5
   1   0   2 4661.74 114.318   3
  -2   0  -2 3.13287 1.04939   2
  -2   0  -2 3.53975 0.93761   3
  -2   0  -2 4.54739 0.95554   5
  -2   0  -2 3.36668 0.86299   1
  -2   0  -2 4.97794 0.95421   5
   2   0   2 3.87382 0.80827   4
   2   0   2 3.27066 1.07245   2
   2   0   2 3.88457 1.02938   5
   2   0   2 3.10198 1.01321   5
   2   0   2 3.91204 0.87393   1
   2   0   2 4.00336 0.95461   3
  -3   0  -2 75.5355 3.27772   3
  -3   0  -2 68.5039 3.81145   1
  -3   0  -2 79.9550 3.74174   2
  -3   0  -2 75.5056 3.07612   4
  -3   0  -2 79.8840 3.52595   5
   3   0   2 79.6774 3.51061   5
   3   0   2 76.2854 3.37613   5
   3   0   2 81.1139 3.52137   1
   3   0   2 77.7637 3.09233   4
   3   0   2 79.1927 3.81912   2
   3   0   2 80.1835 3.30400   3
  -4   0  -2 55.0617 2.86240   4
  -4   0  -2 54.4000 3.37472   1
  -4   0  -2 54.1200 3.67567   2
  -4   0  -2 55.1491 3.39159   5
   4   0   2 59.4181 3.25351   1
   4   0   2 56.5935 2.98226   3
   4   0   2 54.3178 2.90730   4
   4   0   2 55.0593 3.63350   2
   4   0   2 54.8737 3.20162   5
   4   0   2 56.0851 3.15917   5
  -5   0  -2 144.265 5.58010   4
  -5   0  -2 141.482 6.65166   2
  -5   0  -2 142.829 6.14838   5
  -5   0  -2 139.641 6.24424   1
  -5   0  -2 138.550 6.38137   5
  -5   0  -2 146.138 5.57947   3
   5   0   2 150.294 6.13392   5
   5   0   2 135.100 6.24266   1
   5   0   2 144.183 5.60430   4
   5   0   2 151.248 5.57658   3
   5   0   2 143.295 5.98445   5
   5   0   2 149.956 6.75260   2
  -6   0  -2 332.732 12.0382   5
  -6   0  -2 334.685 10.9740   4
  -6   0  -2 344.774 11.7834   5
  -6   0  -2 334.108 10.6800   3
  -6   0  -2 342.547 12.0573   1
   6   0   2 342.893 10.9125   4
   6   0   2 324.277 10.5949   3
   6   0   2 355.549 12.0519   5
   6   0   2 351.871 12.5586   2
   6   0   2 345.100 11.6940   5
  -7   0  -2 165.299 6.76886   3
  -7   0  -2 158.808 8.00192   5
  -7   0  -2 164.027 8.14530   1
  -7   0  -2 157.713 7.43229   4
   7   0   2 164.839 7.08195   4
   7   0   2 162.819 8.53107   2
   7   0   2 160.877 6.88821   3
   7   0   2 166.841 7.69214   5
  -8   0  -2 19.3381 3.62871   3
  -8   0  -2 26.7887 4.82843   1
  -8   0  -2 26.9951 5.65864   5
   8   0   2 20.0552 4.25196   4
   8   0   2 20.5608 5.54059   2
  -9   0  -2 8.69071 3.44207   5
  -9   0  -2 3.95348 2.90767   1
   9   0   2 7.57874 2.76910   4
   9   0   2 6.20798 3.51515   2
   9  -1  -2 8.78050 4.36254   2
   9  -1  -2 9.60417 3.73458   4
  -9   1   2 1.92341 3.49533   5
  -9   1   2 1.71595 3.19036   1
   8  -1  -2 10.0145 3.12288   2
   8  -1  -2 19.9139 5.51234   4
  -8   1   2 19.6057 5.53437   1
  -8   1   2 14.2656 3.04052   5
   7  -1  -2 2.24727 2.31945   2
   7  -1  -2 -0.5011 2.23928   5
   7  -1  -2 1.63226 1.86882   4
  -7   1   2 1.99419 2.06099   5
  -7   1   2 1.89795 1.83808   1
  -7   1   2 0.48536 2.92238   5
   6  -1  -2 50.7716 3.99787   5
   6  -1  -2 49.6145 5.07306   2
   6  -1  -2 49.1448 4.26028   4
  -6   1   2 49.7413 4.96268   5
  -6   1   2 50.8316 4.29201   5
  -6   1   2 47.8400 4.30396   1
  -6   1   2 55.0428 5.18724   4
   5  -1  -2 10.8803 2.98455   2
   5  -1  -2 9.00118 2.17751   1
   5  -1  -2 11.9231 2.71033   4
   5  -1  -2 13.2956 2.35241   5
   5  -1  -2 17.7891 2.64900   5
  -5   1   2 11.7291 2.48103   5
  -5   1   2 14.0774 3.08227   4
  -5   1   2 13.5037 2.48128   1
  -5   1   2 15.5354 3.48777   2
  -5   1   2 13.4602 2.79632   5
   4  -1  -2 40.0783 2.52078   5
   4  -1  -2 38.8724 2.99297   4
   4  -1  -2 35.7104 3.15602   2
   4  -1  -2 42.5305 3.09805   1
   4  -1  -2 41.0481 2.46086   5
  -4   1   2 37.1987 2.75384   5
  -4   1   2 36.8736 2.89194   1
  -4   1   2 38.0863 2.72474   5
  -4   1   2 38.4000 3.45962   2
  -4   1   2 42.5461 3.24723   4
   3  -1  -2 1.41838 0.68636   1
   3  -1  -2 1.35438 0.62687   5
   3  -1  -2 1.17156 0.56961   5
   3  -1  -2 0.98579 0.86561   2
  -3   1   2 1.74670 0.90393   2
  -3   1   2 1.09424 0.76542   5
  -3   1   2 4.16885 1.45806   4
  -3   1   2 1.41659 0.70067   5
  -3   1   2 1.16553 0.64955   1
   2  -1  -2 535.588 14.5737   4
   2  -1  -2 539.942 13.8894   5
   2  -1  -2 577.831 14.3373   1
   2  -1  -2 541.425 14.8400   2
   2  -1  -2 541.502 13.8896   5
  -2   1   2 515.790 14.0498   5
  -2   1   2 535.134 14.7534   2
  -2   1   2 509.396 14.2174   1
  -2   1   2 540.737 14.0719   5
  -2   1   2 538.005 14.5262   4
   1  -1  -2 15.0385 0.98050   1
   1  -1  -2 14.7475 1.28488   4
   1  -1  -2 14.1105 0.83102   5
   1  -1  -2 15.5441 1.33466   2
   1  -1  -2 14.3183 0.85891   3
   1  -1  -2 13.3037 0.83110   5
  -1   1   2 14.5922 0.92330   5
  -1   1   2 15.1744 0.96613   1
  -1   1   2 14.7809 1.35051   2
  -1   1   2 13.6189 0.83542   3
  -1   1   2 13.5303 0.93902   5
  -1   1   2 14.3274 1.24715   4
   0  -1  -2 1216.89 30.3937   3
   0  -1  -2 1242.32 29.9429   5
   0  -1  -2 1259.65 29.9820   5
   0  -1  -2 1227.80 30.6748   4
   0   1   2 1201.84 29.9860   5
   0   1   2 1215.27 29.9948   1
   0   1   2 1191.34 30.2721   5
   0   1   2 1256.34 30.3741   3
   0   1   2 1246.61 30.6565   4
  -1  -1  -2 199.099 5.82502   2
  -1  -1  -2 197.942 5.35098   1
  -1  -1  -2 196.525 5.49017   5
  -1  -1  -2 187.222 5.75310   3
   1   1   2 189.297 5.75744   4
   1   1   2 192.385 5.45518   5
   1   1   2 191.454 5.80559   2
   1   1   2 201.108 5.34463   1
   1   1   2 197.667 5.77464   3
  -2  -1  -2 963.183 24.7997   5
  -2  -1  -2 1003.43 24.9260   5
  -2  -1  -2 989.085 24.8885   1
  -2  -1  -2 1024.16 25.2513   2
  -2  -1  -2 962.609 25.0116   3
   2   1   2 976.311 25.1959   2
   2   1   2 973.231 24.9787   3
   2   1   2 972.485 24.9184   5
   2   1   2 988.871 24.8613   1
   2   1   2 985.036 24.8453   5
   2   1   2 966.492 24.9458   4
  -3  -1  -2 340.768 9.94261   5
  -3  -1  -2 355.606 10.0785   5
  -3  -1  -2 311.139 9.77084   4
  -3  -1  -2 348.974 9.93530   3
  -3  -1  -2 339.457 10.2663   2
   3   1   2 346.401 10.0249   1
   3   1   2 321.616 10.4302   2
   3   1   2 340.471 10.0250   5
   3   1   2 353.758 9.98787   4
   3   1   2 356.868 9.94456   3
   3   1   2 346.514 9.93072   5
  -4  -1  -2 580.430 16.8794   2
  -4  -1  -2 596.000 16.3206   4
  -4  -1  -2 583.102 16.6939   1
  -4  -1  -2 578.748 16.5297   5
  -4  -1  -2 580.898 16.4292   5
   4   1   2 540.640 16.9559   4
   4   1   2 594.590 16.5787   5
   4   1   2 598.736 16.6488   1
   4   1   2 602.273 16.4224   5
   4   1   2 588.408 17.0065   2
   4   1   2 628.287 16.2988   3
  -5  -1  -2 8.28420 2.36435   4
  -5  -1  -2 16.4890 3.44525   5
  -5  -1  -2 9.80887 2.27730   1
  -5  -1  -2 9.12377 2.62841   5
  -5  -1  -2 12.4044 2.11047   3
  -5  -1  -2 13.5085 2.77944   2
   5   1   2 8.63359 2.42159   5
   5   1   2 10.2385 2.22392   4
   5   1   2 11.0963 2.84833   2
   5   1   2 6.80944 1.62304   5
   5   1   2 10.2784 2.41186   1
   5   1   2 11.4631 2.36750   3
  -6  -1  -2 267.248 10.0707   1
  -6  -1  -2 258.352 9.50775   4
  -6  -1  -2 270.785 9.00794   3
  -6  -1  -2 261.231 10.0031   5
  -6  -1  -2 270.975 10.0508   5
   6   1   2 265.611 9.44107   4
   6   1   2 269.271 9.87706   5
   6   1   2 265.126 9.70305   5
   6   1   2 268.293 9.00793   3
   6   1   2 272.711 10.4821   2
  -7  -1  -2 1.35890 1.77711   1
  -7  -1  -2 5.14561 1.80631   3
  -7  -1  -2 -2.4289 2.32394   5
  -7  -1  -2 -1.3812 2.39499   4
  -7  -1  -2 3.45961 2.04404   5
   7   1   2 2.54921 2.16848   2
   7   1   2 3.18061 2.08715   5
   7   1   2 3.24038 1.60760   4
   7   1   2 2.04880 1.81279   3
  -8  -1  -2 253.668 9.36487   3
  -8  -1  -2 263.432 11.5799   1
  -8  -1  -2 267.976 11.6274   5
   8   1   2 252.489 10.4247   4
   8   1   2 253.696 11.9039   2
  -9  -1  -2 10.8613 2.88555   3
  -9  -1  -2 6.32752 3.16909   5
  -9  -1  -2 7.06893 2.96078   1
   9   1   2 5.68736 3.26529   2
   9   1   2 11.5851 3.27949   4
 -10  -1  -2 8.29300 4.75657   5
 -10  -1  -2 6.15642 3.96416   1
  10   1   2 9.03148 4.82426   4
  10   1   2 5.32417 4.55064   2
   9  -2  -2 4.03546 3.47608   4
   9  -2  -2 -5.4966 3.93291   2
  -9   2   2 23.3016 7.47026   1
  -9   2   2 -1.3813 3.63850   5
   8  -2  -2 54.7417 7.35761   2
   8  -2  -2 49.3225 5.77778   4
  -8   2   2 50.9896 6.56222   5
  -8   2   2 49.2285 6.53081   1
   7  -2  -2 2.82352 2.35973   5
   7  -2  -2 0.96905 2.30797   2
   7  -2  -2 4.46851 2.03490   4
  -7   2   2 1.91341 2.04662   1
  -7   2   2 -2.3963 3.04531   5
  -7   2   2 4.47138 2.17121   5
   6  -2  -2 187.564 7.27291   5
   6  -2  -2 191.163 9.18962   2
   6  -2  -2 178.636 7.54556   4
  -6   2   2 172.949 8.46128   4
  -6   2   2 186.594 8.10697   5
  -6   2   2 176.533 8.11114   1
  -6   2   2 196.965 8.02785   5
   5  -2  -2 39.2698 3.07658   5
   5  -2  -2 35.3620 4.08270   2
   5  -2  -2 45.7946 4.13087   1
   5  -2  -2 33.4227 3.21591   4
  -5   2   2 36.7367 3.77836   4
  -5   2   2 35.7054 3.19547   5
  -5   2   2 38.2573 3.50057   1
  -5   2   2 40.1324 3.33666   5
   4  -2  -2 55.5892 2.91798   5
   4  -2  -2 53.4313 3.32694   4
   4  -2  -2 61.0423 3.72286   1
   4  -2  -2 59.0760 4.15412   2
   4  -2  -2 58.2032 2.93399   5
  -4   2   2 59.7131 3.26728   5
  -4   2   2 55.8610 3.18584   5
  -4   2   2 56.4152 3.59862   4
  -4   2   2 59.0573 3.60830   1
  -4   2   2 54.4760 4.23226   2
   3  -2  -2 189.531 5.59366   5
   3  -2  -2 187.763 5.62419   5
   3  -2  -2 176.910 6.46231   4
   3  -2  -2 191.249 6.55661   1
   3  -2  -2 181.306 6.90717   2
  -3   2   2 190.648 6.52186   1
  -3   2   2 192.915 6.10991   5
  -3   2   2 182.880 6.34187   4
  -3   2   2 190.471 6.95081   2
  -3   2   2 189.340 6.08729   5
   2  -2  -2 51.4241 1.77355   5
   2  -2  -2 47.8222 2.43334   1
   2  -2  -2 50.3436 2.58217   4
   2  -2  -2 50.6962 1.78434   5
  -2   2   2 49.5710 1.83160   3
  -2   2   2 47.9540 1.82070   3
  -2   2   2 50.7075 2.48324   1
  -2   2   2 50.2656 2.52413   4
  -2   2   2 49.7817 2.12894   5
  -2   2   2 43.5665 2.39808   5
  -2   2   2 51.0763 2.82262   2
   1  -2  -2 486.801 12.8449   3
   1  -2  -2 506.367 13.4162   4
   1  -2  -2 476.786 13.5035   2
  -1   2   2 502.370 12.4346   5
  -1   2   2 504.750 12.4607   5
  -1   2   2 505.290 13.5522   2
  -1   2   2 501.124 13.0602   1
  -1   2   2 508.969 12.8776   3
  -1   2   2 505.587 13.3700   4
   0  -2  -2 33.4028 1.88106   4
   0  -2  -2 35.0151 1.50948   1
   0  -2  -2 31.9287 1.71365   3
   0   2   2 34.0966 1.83451   4
   0   2   2 33.6878 1.68622   3
   0   2   2 36.9027 1.51103   1
  -1  -2  -2 1137.65 27.1585   5
  -1  -2  -2 1098.65 27.8631   3
  -1  -2  -2 1108.53 27.4282   1
  -1  -2  -2 1088.35 27.1017   5
  -1  -2  -2 1107.43 27.6940   2
   1   2   2 1126.34 27.4201   1
   1   2   2 1074.53 27.1997   5
   1   2   2 1068.73 27.2509   5
   1   2   2 1098.93 27.8319   3
   1   2   2 1122.17 27.7496   2
  -2  -2  -2 27.6563 1.72056   1
  -2  -2  -2 28.5988 1.79043   2
  -2  -2  -2 25.6113 1.81653   3
  -2  -2  -2 26.5005 1.62400   5
   2   2   2 24.6675 1.59001   5
   2   2   2 27.5312 1.76946   2
   2   2   2 28.2639 1.72732   1
   2   2   2 23.3341 1.69860   3
   2   2   2 25.5888 1.82480   4
   2   2   2 26.9685 1.68886   5
  -3  -2  -2 1.04714 0.73905   4
  -3  -2  -2 0.89397 0.65611   5
  -3  -2  -2 1.83155 0.76157   5
  -3  -2  -2 0.27804 0.74766   2
  -3  -2  -2 1.64921 0.79317   3
  -3  -2  -2 0.70982 0.59588   1
   3   2   2 0.71463 0.68858   5
   3   2   2 0.89406 0.70204   1
   3   2   2 0.35105 0.82652   3
   3   2   2 0.61162 0.64271   5
  -4  -2  -2 667.082 18.3902   2
  -4  -2  -2 653.188 18.0650   5
  -4  -2  -2 641.500 18.1247   4
  -4  -2  -2 648.528 18.2816   1
  -4  -2  -2 655.868 17.8720   3
  -4  -2  -2 630.118 17.9211   5
   4   2   2 638.320 18.1594   4
   4   2   2 653.606 18.2423   5
   4   2   2 653.865 17.7990   3
   4   2   2 661.401 18.4062   2
   4   2   2 653.120 18.1745   1
  -5  -2  -2 115.549 5.65293   5
  -5  -2  -2 111.973 5.27964   5
  -5  -2  -2 119.150 5.71060   2
  -5  -2  -2 108.035 5.29438   1
  -5  -2  -2 109.750 5.44164   4
  -5  -2  -2 110.880 4.84002   3
   5   2   2 93.1927 5.93992   5
   5   2   2 115.253 5.06910   3
   5   2   2 102.610 5.30236   1
   5   2   2 109.373 5.32564   4
   5   2   2 118.907 5.50421   5
   5   2   2 110.327 5.47477   2
  -6  -2  -2 -0.0318 1.22529   3
  -6  -2  -2 -3.1039 2.07322   5
  -6  -2  -2 -1.2682 1.66106   4
  -6  -2  -2 -0.5319 1.31596   1
  -6  -2  -2 -1.4014 1.20697   5
   6   2   2 0.44487 1.50789   2
   6   2   2 -2.0338 1.87193   5
   6   2   2 -1.0538 1.50757   5
   6   2   2 1.69320 1.44196   4
   6   2   2 2.67170 1.59721   3
  -7  -2  -2 0.91484 2.15401   5
  -7  -2  -2 1.16531 2.59698   5
  -7  -2  -2 2.50444 1.58945   1
  -7  -2  -2 1.96626 1.78454   3
   7   2   2 -1.7991 2.24574   5
   7   2   2 1.59334 1.83221   4
   7   2   2 1.82320 2.12744   2
   7   2   2 -0.3139 1.96368   3
  -8  -2  -2 2.97007 2.29388   5
  -8  -2  -2 -1.1610 1.96197   1
  -8  -2  -2 -1.4704 2.08166   3
   8   2   2 -0.8519 2.77325   5
   8   2   2 1.39437 2.57138   2
   8   2   2 14.5572 4.60422   4
  -9  -2  -2 2.90615 2.65016   1
  -9  -2  -2 15.7701 4.91741   3
  -9  -2  -2 5.12171 3.62052   5
   9   2   2 0.83893 3.34611   2
   9   2   2 6.46625 2.73197   4
 -10  -2  -2 23.8585 5.63588   5
 -10  -2  -2 47.5148 7.94500   1
  10   2   2 40.1524 9.05760   4
  10   2   2 37.4935 9.81970   2
   9  -3  -2 11.7848 4.66540   2
  -9   3   2 8.81468 3.72542   5
   8  -3  -2 20.2309 7.14542   2
   8  -3  -2 12.5695 2.81659   4
  -8   3   2 23.6408 5.89054   5
  -8   3   2 13.2223 3.73803   1
   7  -3  -2 9.67328 2.34500   4
   7  -3  -2 7.97631 2.63460   2
  -7   3   2 13.1696 4.30134   5
  -7   3   2 11.1842 3.91359   1
   6  -3  -2 2.73584 1.59640   5
   6  -3  -2 3.67886 1.70820   4
   6  -3  -2 -1.3094 1.76258   2
  -6   3   2 3.57690 2.28182   4
  -6   3   2 3.94479 1.83337   1
  -6   3   2 -0.4964 1.82427   5
  -6   3   2 0.51294 1.47621   5
   5  -3  -2 232.881 9.60703   2
   5  -3  -2 222.397 8.11774   4
   5  -3  -2 221.535 7.19986   5
  -5   3   2 231.311 8.41479   4
  -5   3   2 225.478 8.26479   5
  -5   3   2 226.172 8.25545   5
  -5   3   2 226.153 8.91027   1
   4  -3  -2 8.79120 1.63668   5
   4  -3  -2 9.30554 2.92162   1
   4  -3  -2 10.1311 2.08942   4
   4  -3  -2 5.42816 1.40237   2
   4  -3  -2 8.28286 1.56462   5
  -4   3   2 8.33638 2.02133   5
  -4   3   2 9.95396 1.96544   5
  -4   3   2 6.00330 1.46676   4
  -4   3   2 4.92378 1.79956   2
  -4   3   2 9.85565 2.18777   1
   3  -3  -2 91.9236 2.96372   5
   3  -3  -2 94.4563 2.95997   5
   3  -3  -2 95.3194 4.72236   2
   3  -3  -2 96.4686 4.07989   4
  -3   3   2 96.2384 3.24747   3
  -3   3   2 92.3951 4.66850   2
  -3   3   2 93.8861 4.01001   4
  -3   3   2 94.0212 3.75685   5
  -3   3   2 98.3753 3.32023   3
  -3   3   2 95.2419 4.35823   1
  -3   3   2 91.3450 3.63805   5
   2  -3  -2 267.978 8.72949   2
   2  -3  -2 284.687 8.26773   4
  -2   3   2 278.950 7.69427   3
  -2   3   2 283.008 7.70759   3
  -2   3   2 273.012 7.44731   5
  -2   3   2 228.887 7.94953   4
  -2   3   2 273.521 7.41544   5
  -2   3   2 283.815 8.76653   2
   1  -3  -2 804.979 21.3123   2
   1  -3  -2 795.260 21.0489   4
  -1   3   2 827.258 21.0037   1
  -1   3   2 815.859 20.8342   3
  -1   3   2 806.621 21.2577   2
  -1   3   2 822.267 21.0730   4
   0  -3  -2 233.616 7.03775   3
   0  -3  -2 235.215 6.84660   1
   0   3   2 240.401 7.12872   4
   0   3   2 245.122 6.87511   1
   0   3   2 222.413 6.94328   3
   0   3   2 232.358 6.93320   2
  -1  -3  -2 223.235 5.64415   5
  -1  -3  -2 220.896 6.46233   2
  -1  -3  -2 222.901 5.63913   5
  -1  -3  -2 218.680 6.47630   1
   1   3   2 217.050 6.41943   1
   1   3   2 222.197 6.80209   3
   1   3   2 217.294 6.44761   2
   1   3   2 208.897 5.93294   5
   1   3   2 213.491 5.90592   5
   1   3   2 206.930 6.81280   4
  -2  -3  -2 254.974 8.12354   3
  -2  -3  -2 260.339 7.86887   1
  -2  -3  -2 270.249 7.83794   2
  -2  -3  -2 264.970 7.44816   5
  -2  -3  -2 267.015 7.48686   5
   2   3   2 270.570 7.89195   1
   2   3   2 268.098 7.60581   5
   2   3   2 237.938 8.97852   4
   2   3   2 264.833 8.09290   3
   2   3   2 268.460 7.84491   2
   2   3   2 274.801 7.74415   5
  -3  -3  -2 74.2750 3.57622   2
  -3  -3  -2 73.6706 3.60779   3
  -3  -3  -2 73.5619 3.72000   4
  -3  -3  -2 75.5112 3.52798   1
  -3  -3  -2 77.6636 3.29824   5
  -3  -3  -2 76.0348 3.33404   5
   3   3   2 77.2589 3.57306   3
   3   3   2 72.5562 3.27731   5
   3   3   2 73.9213 3.83348   4
   3   3   2 64.6117 3.87883   2
   3   3   2 74.4883 3.49783   1
   3   3   2 73.9569 3.51744   5
  -4  -3  -2 17.5567 2.45300   4
  -4  -3  -2 18.8666 2.38010   5
  -4  -3  -2 10.9332 2.37821   2
  -4  -3  -2 13.6205 1.97554   1
  -4  -3  -2 14.1340 2.08884   3
  -4  -3  -2 13.3555 2.01597   5
   4   3   2 14.5972 2.49957   4
   4   3   2 16.9386 2.30581   5
   4   3   2 12.4293 2.05668   1
   4   3   2 15.1739 2.28753   2
   4   3   2 14.9348 2.15234   5
   4   3   2 15.8630 2.40315   3
  -5  -3  -2 1.47498 1.49163   2
  -5  -3  -2 3.12162 1.38371   5
  -5  -3  -2 3.74333 1.43448   3
  -5  -3  -2 5.55893 1.58719   5
  -5  -3  -2 3.44103 1.58331   4
  -5  -3  -2 3.54658 1.30994   1
   5   3   2 3.30901 1.31280   4
   5   3   2 8.10542 2.64290   2
   5   3   2 5.10107 1.73703   3
   5   3   2 5.05623 1.56037   5
   5   3   2 2.48132 1.35275   5
   5   3   2 2.51121 1.26843   1
  -6  -3  -2 152.504 7.49452   4
  -6  -3  -2 145.326 7.58195   5
  -6  -3  -2 154.544 7.26667   1
  -6  -3  -2 152.987 6.54262   3
  -6  -3  -2 151.528 7.36584   5
   6   3   2 156.696 7.55962   2
   6   3   2 153.048 6.51924   3
   6   3   2 150.296 7.13813   5
   6   3   2 163.955 7.43019   4
  -7  -3  -2 2.31161 1.79336   1
  -7  -3  -2 0.90245 1.84816   5
  -7  -3  -2 1.90055 1.90600   3
   7   3   2 4.98864 2.39200   3
   7   3   2 -1.6631 1.79202   5
   7   3   2 0.77934 1.88780   4
   7   3   2 -0.5237 1.90754   2
  -8  -3  -2 110.407 6.13799   3
  -8  -3  -2 95.9871 7.00163   1
  -8  -3  -2 109.868 7.73097   5
   8   3   2 86.7078 7.44333   5
   8   3   2 106.715 8.01811   2
   8   3   2 111.457 7.58203   4
  -9  -3  -2 -0.2468 2.57780   1
  -9  -3  -2 -2.5114 3.50451   5
   9   3   2 1.67791 3.71765   2
   9   3   2 -2.1202 4.59046   5
 -10  -3  -2 38.2115 8.16200   1
  10   3   2 54.9369 10.1374   2
  10   3   2 66.7670 9.88314   4
   8  -4  -2 -2.2020 3.39994   2
   8  -4  -2 2.92877 3.01574   4
  -8   4   2 0.30023 2.68419   5
  -8   4   2 1.74130 2.94939   1
   7  -4  -2 2.60114 1.98866   4
   7  -4  -2 0.01675 2.55958   2
  -7   4   2 -1.0677 1.99288   1
  -7   4   2 -2.2282 1.89683   5
   6  -4  -2 15.1493 4.59179   2
   6  -4  -2 14.8686 3.03145   5
   6  -4  -2 8.56518 1.93638   4
  -6   4   2 10.8594 2.25257   5
  -6   4   2 8.88509 2.36665   5
  -6   4   2 8.79135 2.46301   1
  -6   4   2 15.8127 4.32657   4
   5  -4  -2 73.2392 5.55870   2
   5  -4  -2 73.1986 3.33132   5
   5  -4  -2 77.8345 4.32101   4
  -5   4   2 81.6548 4.78928   4
  -5   4   2 72.6055 4.64324   5
  -5   4   2 80.1377 4.56199   5
  -5   4   2 78.7311 5.34959   1
   4  -4  -2 0.81318 0.97029   4
   4  -4  -2 0.96897 1.31131   2
  -4   4   2 1.81040 1.00081   5
  -4   4   2 -0.1301 1.17803   4
  -4   4   2 0.28344 0.84931   3
  -4   4   2 -0.4997 0.87255   3
  -4   4   2 0.84546 0.97121   5
  -4   4   2 0.39482 1.00147   1
  -4   4   2 -0.5961 1.99677   2
   3  -4  -2 42.8888 2.78503   4
   3  -4  -2 39.5551 3.34072   2
  -3   4   2 44.7333 2.71852   4
  -3   4   2 43.8338 2.41746   3
  -3   4   2 50.3914 3.67502   2
  -3   4   2 43.9196 2.41675   5
  -3   4   2 41.5901 2.54713   3
  -3   4   2 49.5358 3.35748   1
  -3   4   2 42.4808 2.43367   5
   2  -4  -2 863.872 23.8607   2
   2  -4  -2 887.792 23.1210   4
  -2   4   2 898.392 23.1085   4
  -2   4   2 903.471 23.6507   1
  -2   4   2 904.315 22.9630   3
  -2   4   2 878.417 23.8242   2
  -2   4   2 895.348 22.1244   5
  -2   4   2 868.802 22.9115   3
  -2   4   2 867.975 22.1787   5
   1  -4  -2 16.9423 2.26026   2
  -1   4   2 18.9669 1.93470   2
  -1   4   2 16.1447 1.61165   4
  -1   4   2 18.7744 1.79009   3
  -1   4   2 17.3211 1.71228   1
   0  -4  -2 1310.95 33.5540   1
   0   4   2 1329.49 33.5135   1
   0   4   2 1349.98 33.7371   4
   0   4   2 1314.34 33.7347   3
   0   4   2 1312.97 33.3518   2
  -1  -4  -2 219.253 6.76137   1
  -1  -4  -2 183.919 7.60911   3
   1   4   2 212.076 7.00303   3
   1   4   2 225.661 6.80817   1
   1   4   2 211.484 5.90654   5
   1   4   2 227.437 6.54492   2
  -2  -4  -2 75.7150 2.83147   5
  -2  -4  -2 68.2339 3.51528   3
  -2  -4  -2 76.0936 2.83080   5
  -2  -4  -2 80.0461 3.17338   2
  -2  -4  -2 74.3898 3.36013   1
   2   4   2 68.3234 3.01082   5
   2   4   2 76.4379 3.19561   2
   2   4   2 74.7709 3.63106   3
   2   4   2 74.4446 3.03888   5
   2   4   2 73.9115 3.37258   1
  -3  -4  -2 160.975 5.63974   2
  -3  -4  -2 161.050 6.33808   4
  -3  -4  -2 156.633 5.93466   1
  -3  -4  -2 159.988 6.17691   3
  -3  -4  -2 166.178 5.54868   5
   3   4   2 161.243 5.67795   5
   3   4   2 160.502 6.43432   4
   3   4   2 160.067 5.74875   5
   3   4   2 160.294 5.69928   2
   3   4   2 169.156 6.08983   1
   3   4   2 165.181 6.06672   3
  -4  -4  -2 2.12268 1.00082   5
  -4  -4  -2 -0.4435 1.20656   2
  -4  -4  -2 1.17052 1.15060   3
  -4  -4  -2 1.64522 0.96696   5
  -4  -4  -2 2.42033 1.24239   4
  -4  -4  -2 1.28651 0.86937   1
   4   4   2 0.00827 0.97069   5
   4   4   2 1.71782 1.19282   3
   4   4   2 0.28597 0.61756   5
   4   4   2 2.05534 1.03781   1
   4   4   2 0.34513 0.92467   2
  -5  -4  -2 248.909 8.65246   5
  -5  -4  -2 245.040 8.81507   5
  -5  -4  -2 250.854 9.07462   2
  -5  -4  -2 240.248 9.04197   1
  -5  -4  -2 244.909 8.77292   3
  -5  -4  -2 232.213 9.24852   4
   5   4   2 240.462 8.70502   5
   5   4   2 220.784 8.84033   1
   5   4   2 243.392 8.80823   3
   5   4   2 249.285 8.89332   2
   5   4   2 241.294 9.31852   4
   5   4   2 250.156 9.04473   5
  -6  -4  -2 37.7417 5.40220   2
  -6  -4  -2 60.6507 6.32157   5
  -6  -4  -2 46.4664 4.10944   5
  -6  -4  -2 43.5256 3.68266   3
  -6  -4  -2 44.9046 4.21147   1
   6   4   2 48.9069 4.70172   2
   6   4   2 45.0894 4.68296   5
   6   4   2 42.3984 4.54559   3
   6   4   2 43.5839 4.25486   4
   6   4   2 45.2607 4.33348   5
  -7  -4  -2 -0.4455 2.22001   5
  -7  -4  -2 1.39923 1.83124   3
  -7  -4  -2 2.08886 1.72840   1
   7   4   2 1.89369 1.95669   2
   7   4   2 4.58058 3.15986   5
   7   4   2 2.35088 1.80425   5
   7   4   2 3.26104 1.87298   4
   7   4   2 2.95515 2.47297   3
  -8  -4  -2 7.37832 2.38525   1
  -8  -4  -2 6.42010 3.00103   5
   8   4   2 17.7397 5.92610   2
   8   4   2 5.65230 3.19360   5
   8   4   2 8.79467 2.89929   4
  -9  -4  -2 0.96732 2.80572   1
  -9  -4  -2 -0.2365 3.85870   5
   9   4   2 3.66191 3.95025   5
   9   4   2 -0.8777 3.47986   2
   8  -5  -2 1.74797 4.33983   2
  -8   5   2 -4.7051 3.13753   1
  -8   5   2 -1.2083 2.82880   5
   7  -5  -2 3.13580 3.02105   2
   7  -5  -2 -0.3620 2.03372   4
  -7   5   2 3.25311 2.41046   1
  -7   5   2 3.47305 2.49426   5
   6  -5  -2 2.66597 1.63294   4
   6  -5  -2 0.57196 2.01802   2
  -6   5   2 3.86176 2.20371   4
  -6   5   2 4.52961 2.23721   1
  -6   5   2 1.92647 2.10354   5
  -6   5   2 2.32424 1.56623   5
   5  -5  -2 304.587 11.9523   2
   5  -5  -2 307.849 9.92261   4
  -5   5   2 306.381 9.05104   3
  -5   5   2 286.251 11.2154   1
  -5   5   2 296.863 10.0347   4
  -5   5   2 307.904 10.2134   5
  -5   5   2 311.618 9.26720   3
  -5   5   2 310.106 10.3109   5
   4  -5  -2 59.8169 3.63070   4
   4  -5  -2 59.2540 4.84297   2
  -4   5   2 60.0764 4.34136   1
  -4   5   2 60.4411 3.37912   5
  -4   5   2 56.1237 3.76006   4
  -4   5   2 57.3530 3.48370   3
  -4   5   2 58.1818 3.55933   5
   3  -5  -2 214.896 8.31514   2
  -3   5   2 216.248 7.22134   3
  -3   5   2 211.636 6.73241   5
  -3   5   2 218.455 7.23542   3
  -3   5   2 214.572 6.61559   5
  -3   5   2 215.395 7.21817   4
  -3   5   2 217.595 8.08753   1
  -3   5   2 206.044 8.46331   2
   2  -5  -2 10.6213 2.25175   2
  -2   5   2 5.83549 1.98999   3
  -2   5   2 8.21218 1.85570   4
  -2   5   2 10.4764 1.23258   5
  -2   5   2 7.73350 1.07102   5
  -2   5   2 12.1231 2.18155   1
  -2   5   2 9.11549 2.56873   2
  -2   5   2 9.72218 1.89169   1
  -2   5   2 10.4286 1.71640   3
   1  -5  -2 1166.17 30.3089   2
  -1   5   2 1140.90 30.2483   3
  -1   5   2 1186.03 30.3240   3
  -1   5   2 1129.49 30.3312   1
  -1   5   2 1200.71 30.1927   4
  -1   5   2 1174.39 30.2451   2
   0  -5  -2 1772.67 43.3838   1
   0   5   2 1801.26 43.3710   1
   0   5   2 1578.95 43.3833   4
   0   5   2 1701.65 43.4446   3
   0   5   2 1687.48 42.7716   2
   0   5   2 1698.83 43.2572   4
  -1  -5  -2 39.9415 2.55753   1
   1   5   2 37.6128 2.80131   3
   1   5   2 37.2904 1.88439   5
   1   5   2 38.2459 1.79131   5
   1   5   2 39.0374 2.17141   2
   1   5   2 38.4074 2.22394   2
   1   5   2 38.7620 2.86311   4
   1   5   2 39.3135 2.43601   1
  -2  -5  -2 26.6279 2.05025   2
  -2  -5  -2 27.6339 2.23709   1
  -2  -5  -2 26.5600 2.57396   3
  -2  -5  -2 27.7858 1.59154   5
   2   5   2 25.1818 2.22891   1
   2   5   2 27.6232 2.05992   5
   2   5   2 27.5902 2.59432   4
   2   5   2 28.4866 2.44404   3
   2   5   2 27.2865 1.95863   2
   2   5   2 26.5794 1.99753   5
  -3  -5  -2 522.319 14.3646   2
  -3  -5  -2 513.588 15.3664   3
  -3  -5  -2 504.657 15.0950   1
  -3  -5  -2 521.234 15.5408   4
  -3  -5  -2 533.696 14.2652   5
  -3  -5  -2 522.523 14.2187   5
   3   5   2 538.572 15.1458   1
   3   5   2 528.806 15.3438   3
   3   5   2 517.199 14.4730   5
   3   5   2 520.688 14.4131   2
   3   5   2 507.584 15.6730   4
   3   5   2 495.396 14.5993   5
  -4  -5  -2 185.104 7.26491   1
  -4  -5  -2 180.370 7.21047   3
  -4  -5  -2 179.216 6.65255   5
  -4  -5  -2 180.689 7.52267   4
  -4  -5  -2 188.045 6.82509   2
   4   5   2 181.012 7.10189   1
   4   5   2 188.537 6.82298   2
   4   5   2 190.726 7.41411   3
   4   5   2 187.043 6.95711   5
   4   5   2 177.488 7.63916   4
   4   5   2 174.776 6.98670   5
  -5  -5  -2 18.9550 2.80893   1
  -5  -5  -2 19.6617 3.02147   3
  -5  -5  -2 23.1173 3.58265   2
  -5  -5  -2 22.6457 3.63809   5
  -5  -5  -2 17.0314 3.09760   5
   5   5   2 17.1425 3.08769   5
   5   5   2 14.9637 3.50333   3
   5   5   2 15.7817 2.96902   5
   5   5   2 14.5414 3.00689   2
   5   5   2 17.8629 3.07559   4
  -6  -5  -2 52.1768 4.53906   3
  -6  -5  -2 55.2525 5.26792   2
  -6  -5  -2 39.2069 4.41355   1
  -6  -5  -2 44.5375 4.52798   5
   6   5   2 46.4394 5.08959   5
   6   5   2 45.4481 4.64338   4
   6   5   2 46.5603 4.52007   2
   6   5   2 45.5175 4.44306   5
   6   5   2 40.9390 5.38694   3
  -7  -5  -2 1.74134 2.36292   5
  -7  -5  -2 4.42702 2.02515   1
   7   5   2 5.91368 2.52266   4
   7   5   2 4.16075 2.23456   2
   7   5   2 4.09161 2.35248   5
   7   5   2 3.69030 2.79934   5
  -8  -5  -2 9.70588 3.42143   5
  -8  -5  -2 2.61689 2.45613   1
   8   5   2 17.7997 6.12032   2
   8   5   2 5.81781 3.17006   5
   8   5   2 3.24235 2.73812   4
  -9  -5  -2 14.4648 3.59177   1
   9   5   2 35.7590 10.1610   5
   9   5   2 12.9759 4.21479   2
   9   5   2 20.2379 4.33854   4
   8  -6  -2 11.2307 5.32916   2
  -8   6   2 -1.9725 3.27570   5
  -8   6   2 1.26321 3.48838   1
   7  -6  -2 82.6199 8.87258   2
  -7   6   2 86.7449 6.45098   5
  -7   6   2 68.1858 7.36611   1
   6  -6  -2 38.3891 4.12492   4
   6  -6  -2 42.9950 6.60959   2
  -6   6   2 45.9514 5.60436   1
  -6   6   2 31.3637 5.68668   5
  -6   6   2 38.6689 4.38260   5
   5  -6  -2 94.1741 6.88539   2
  -5   6   2 95.9021 4.59661   3
  -5   6   2 100.308 5.30030   3
  -5   6   2 97.1720 5.37265   4
  -5   6   2 97.9737 6.17692   1
  -5   6   2 91.7034 5.36617   5
  -5   6   2 96.8590 5.00668   5
   4  -6  -2 2.10478 1.62915   2
  -4   6   2 3.27494 1.42613   4
  -4   6   2 3.42815 1.78448   3
  -4   6   2 1.63318 1.36003   3
  -4   6   2 1.46284 1.36322   5
  -4   6   2 1.24928 1.13108   5
  -4   6   2 1.02182 1.37491   1
   3  -6  -2 122.146 6.20547   2
  -3   6   2 125.287 5.30715   3
  -3   6   2 126.731 7.73074   1
  -3   6   2 105.932 5.15573   5
  -3   6   2 122.841 4.43151   5
  -3   6   2 118.408 5.14725   4
  -3   6   2 130.842 6.21744   1
  -3   6   2 116.916 6.64688   2
  -3   6   2 121.393 5.60389   3
   2  -6  -2 702.267 20.0231   2
  -2   6   2 705.268 19.1567   4
  -2   6   2 698.834 18.0786   5
  -2   6   2 690.088 20.1134   1
  -2   6   2 740.433 20.3280   1
  -2   6   2 720.078 17.9965   5
  -2   6   2 700.503 19.6816   3
  -2   6   2 703.169 19.7045   3
  -2   6   2 693.279 19.9937   2
   1  -6  -2 1064.84 28.0749   2
  -1   6   2 1070.63 28.5372   1
  -1   6   2 1069.85 28.0467   2
  -1   6   2 1050.40 28.3762   3
  -1   6   2 1074.22 27.9409   4
  -1   6   2 1061.48 27.9593   4
  -1   6   2 1049.81 28.2869   3
   0  -6  -2 111.461 5.00572   1
   0   6   2 113.869 3.56748   5
   0   6   2 113.105 4.99437   4
   0   6   2 115.398 5.00341   4
   0   6   2 112.187 3.49412   5
   0   6   2 115.879 5.22716   3
   0   6   2 115.330 4.57425   2
   0   6   2 115.588 5.10338   1
  -1  -6  -2 20.6362 2.19906   1
   1   6   2 23.4910 2.32459   1
   1   6   2 21.8347 1.67122   5
   1   6   2 23.5104 1.91445   2
   1   6   2 20.9122 2.60487   4
   1   6   2 29.0167 2.72329   3
   1   6   2 21.1690 1.92470   2
   1   6   2 22.2715 1.59870   5
  -2  -6  -2 107.802 4.93686   1
  -2  -6  -2 118.370 3.60089   5
  -2  -6  -2 114.548 3.57817   5
   2   6   2 113.683 4.24347   2
   2   6   2 112.787 5.44683   3
   2   6   2 108.940 4.30226   5
   2   6   2 109.296 5.00517   1
   2   6   2 113.645 5.45714   4
   2   6   2 114.966 4.25408   5
  -3  -6  -2 21.1572 2.28103   2
  -3  -6  -2 16.2937 2.31041   5
  -3  -6  -2 21.8694 2.01739   5
  -3  -6  -2 17.5856 2.43935   1
   3   6   2 21.4946 2.19974   2
   3   6   2 17.4525 2.80982   1
   3   6   2 19.7055 3.13269   4
   3   6   2 19.5650 2.33414   5
   3   6   2 21.8018 2.37489   5
   3   6   2 26.3413 3.02022   3
  -4  -6  -2 47.1257 3.58840   5
  -4  -6  -2 51.0530 3.81848   1
  -4  -6  -2 54.5026 3.47822   5
  -4  -6  -2 55.7142 4.85981   4
  -4  -6  -2 51.3487 3.58636   2
   4   6   2 43.1066 4.53956   3
   4   6   2 51.9086 3.70189   5
   4   6   2 48.0722 3.81772   5
   4   6   2 43.0496 3.27601   2
   4   6   2 44.9926 4.49045   4
   4   6   2 46.5257 4.11337   1
  -5  -6  -2 26.4812 3.73617   2
  -5  -6  -2 25.5473 3.51418   1
   5   6   2 22.5804 3.57300   5
   5   6   2 37.0520 5.54701   3
   5   6   2 20.4063 3.67153   4
   5   6   2 28.5360 3.25084   2
   5   6   2 27.0744 4.09306   5
  -6  -6  -2 2.92642 1.76382   1
  -6  -6  -2 -0.7566 2.26010   2
  -6  -6  -2 3.15014 1.92123   5
   6   6   2 1.57983 2.02530   5
   6   6   2 4.11086 1.90605   2
   6   6   2 3.04094 2.83316   5
   6   6   2 3.88424 2.18033   4
  -7  -6  -2 4.89058 2.16955   1
  -7  -6  -2 4.54821 2.14421   5
   7   6   2 4.01996 2.43239   2
   7   6   2 1.88335 2.47154   5
   7   6   2 -0.2093 2.14885   4
   7   6   2 0.79446 2.74240   5
  -8  -6  -2 26.1359 5.54676   1
   8   6   2 14.4729 3.57228   4
   8   6   2 20.5711 6.17081   2
   8   6   2 22.3980 4.44041   5
  -9  -6  -2 5.67835 3.33219   1
   9   6   2 13.1986 4.39086   4
   9   6   2 -5.4621 4.43142   5
   9   6   2 -1.1319 3.87117   2
   7  -7  -2 6.55132 3.98477   2
  -7   7   2 10.4173 3.73743   1
  -7   7   2 11.4545 3.12575   5
   6  -7  -2 12.7826 3.57973   2
  -6   7   2 16.4150 3.70278   3
  -6   7   2 22.1603 5.56639   1
  -6   7   2 25.5449 4.19283   5
   5  -7  -2 12.4529 2.94927   2
  -5   7   2 14.2985 4.53415   1
  -5   7   2 13.2129 3.12639   3
   4  -7  -2 -0.1886 1.89716   2
  -4   7   2 -2.3403 1.70165   4
  -4   7   2 -1.1344 1.70206   1
  -4   7   2 0.60461 1.54033   3
  -4   7   2 1.31594 1.12770   5
  -4   7   2 -0.1958 2.35841   3
   3  -7  -2 8.03578 2.09484   2
  -3   7   2 13.8390 1.87052   5
  -3   7   2 6.54089 2.42285   3
  -3   7   2 12.3178 2.88205   3
  -3   7   2 12.0840 3.35567   1
  -3   7   2 12.0631 2.67974   4
   2  -7  -2 190.891 7.71252   2
  -2   7   2 197.015 5.99227   5
  -2   7   2 189.681 7.83096   3
  -2   7   2 196.423 5.85300   5
  -2   7   2 188.526 7.03355   4
  -2   7   2 200.381 7.67729   3
  -2   7   2 198.910 7.99997   2
  -2   7   2 185.680 6.95312   4
  -2   7   2 188.304 7.93028   1
  -1   7   2 46.7705 3.59917   3
  -1   7   2 50.6767 3.38728   4
  -1   7   2 47.8611 2.17951   5
  -1   7   2 49.1714 3.49019   4
  -1   7   2 49.9231 2.13045   5
  -1   7   2 43.9822 3.97336   3
  -1   7   2 45.0948 4.09143   1
  -1   7   2 48.7366 3.81673   2
   0  -7  -2 29.8136 2.82020   1
   0   7   2 31.7225 3.15273   3
   0   7   2 27.2978 2.96323   1
   0   7   2 31.6781 1.86619   5
   0   7   2 33.2327 3.64610   3
   0   7   2 32.8216 3.24090   4
   0   7   2 33.1454 3.12444   4
   0   7   2 27.6991 1.80688   5
   0   7   2 25.8163 2.79543   2
  -1  -7  -2 115.574 5.54024   1
   1   7   2 118.846 4.39370   5
   1   7   2 124.425 5.65401   1
   1   7   2 123.497 4.62248   2
   1   7   2 126.519 5.82073   4
   1   7   2 125.033 4.41703   5
   1   7   2 125.094 4.68896   2
   1   7   2 129.119 6.05425   3
  -2  -7  -2 21.5269 2.70293   1
   2   7   2 24.6499 2.31041   5
   2   7   2 28.6402 3.51530   3
   2   7   2 29.4056 3.42437   4
   2   7   2 26.6921 2.26220   2
   2   7   2 28.0469 2.14333   2
   2   7   2 24.8961 2.30702   5
  -3  -7  -2 1509.15 37.4232   5
  -3  -7  -2 1462.33 37.3730   5
  -3  -7  -2 1514.73 39.5828   1
   3   7   2 1506.88 39.8928   3
   3   7   2 1504.83 38.4318   5
   3   7   2 1503.72 38.2789   5
   3   7   2 1532.18 37.6902   2
   3   7   2 1353.96 39.1158   1
   3   7   2 1508.98 40.1214   4
  -4  -7  -2 474.081 13.6616   2
  -4  -7  -2 464.614 15.1870   1
  -4  -7  -2 487.301 13.7935   5
   4   7   2 468.080 14.2892   5
   4   7   2 471.833 14.5010   5
   4   7   2 468.271 15.9177   4
   4   7   2 470.266 13.6143   2
  -5  -7  -2 118.441 5.98410   5
  -5  -7  -2 113.164 5.96355   2
  -5  -7  -2 118.437 6.49362   1
   5   7   2 118.589 6.41435   5
   5   7   2 120.015 5.57372   2
   5   7   2 117.720 6.44090   5
   5   7   2 117.999 7.11683   4
  -6  -7  -2 1.54284 2.51139   2
  -6  -7  -2 1.40930 1.97919   1
   6   7   2 0.16899 1.85693   5
   6   7   2 -2.7447 1.70122   2
   6   7   2 0.85449 2.06845   4
   6   7   2 -3.1048 2.53276   5
  -7  -7  -2 21.0349 6.23436   5
  -7  -7  -2 26.8256 5.44646   1
   7   7   2 23.1318 6.22360   5
   7   7   2 21.3510 5.10420   2
   7   7   2 26.6796 5.43064   4
  -8  -7  -2 58.1830 8.07214   1
   8   7   2 39.9882 8.50640   5
   8   7   2 47.8525 8.05125   4
   8   7   2 41.1075 7.23170   2
  -9  -7  -2 91.3114 10.5296   1
   9   7   2 88.3840 13.0671   5
   9   7   2 68.0534 8.98881   4
   9   7   2 68.8386 10.4034   2
   7  -8  -2 14.8902 5.36326   2
  -7   8   2 24.6902 4.89673   1
  -7   8   2 21.5713 3.98591   5
   6  -8  -2 9.18196 4.04143   2
  -6   8   2 4.93688 2.89914   1
  -6   8   2 6.71808 2.61002   5
   5  -8  -2 8.73744 3.26650   2
  -5   8   2 18.1733 4.35857   5
  -5   8   2 7.22077 2.47182   1
  -5   8   2 16.3496 3.95723   3
  -5   8   2 10.8319 2.17511   5
   4  -8  -2 53.8325 5.72092   2
  -4   8   2 67.4961 5.99376   1
  -4   8   2 61.1371 4.89571   3
  -4   8   2 55.0198 3.63424   5
  -4   8   2 59.5156 4.43202   5
  -4   8   2 59.7789 7.30064   3
  -4   8   2 52.9417 4.56457   4
  -4   8   2 56.6181 4.09862   4
   3  -8  -2 -0.5640 1.60848   2
  -3   8   2 0.14037 1.41051   4
  -3   8   2 1.01708 3.27660   3
  -3   8   2 10.9915 3.64537   3
  -3   8   2 1.61135 1.87216   1
  -3   8   2 1.34349 1.27915   5
  -3   8   2 0.30169 0.89032   5
  -3   8   2 -0.9618 1.76966   4
   2  -8  -2 258.727 9.79969   2
  -2   8   2 272.076 10.4309   1
  -2   8   2 257.898 7.95370   5
  -2   8   2 271.395 7.84677   5
  -2   8   2 251.847 9.82753   3
  -2   8   2 300.946 12.2773   3
  -2   8   2 247.334 10.3520   2
  -2   8   2 271.339 7.84677   5
  -2   8   2 264.433 9.10114   4
  -2   8   2 270.871 9.27230   4
  -1   8   2 481.955 14.4095   4
  -1   8   2 479.474 12.5156   5
  -1   8   2 459.940 14.2465   2
  -1   8   2 466.326 12.5833   5
  -1   8   2 444.736 14.0758   4
  -1   8   2 474.306 15.0775   3
   0   8   2 83.4226 4.19133   2
   0   8   2 90.9624 3.55599   5
   0   8   2 86.7263 5.32339   3
   0   8   2 89.8971 4.59509   2
   0   8   2 90.9920 5.29863   4
   0   8   2 94.3082 3.60541   5
   0   8   2 97.3003 5.25447   4
  -1  -8  -2 72.4230 4.68342   1
   1   8   2 65.3975 3.59345   2
   1   8   2 71.0174 3.42160   5
   1   8   2 71.0759 3.48041   2
   1   8   2 70.5556 3.38036   5
   1   8   2 70.5451 4.93004   4
   1   8   2 69.7537 4.84083   3
  -2  -8  -2 448.945 14.6823   1
   2   8   2 459.103 12.5701   2
   2   8   2 453.633 13.0538   5
   2   8   2 461.561 15.1176   4
   2   8   2 444.442 13.1278   5
   2   8   2 453.759 12.5191   2
  -3  -8  -2 500.146 13.2925   5
  -3  -8  -2 508.940 15.8887   1
   3   8   2 476.240 16.2026   4
   3   8   2 498.291 13.6550   2
   3   8   2 492.176 14.6507   5
   3   8   2 489.877 14.7832   5
  -4  -8  -2 0.84942 1.38207   5
  -4  -8  -2 2.37489 1.56515   1
   4   8   2 -1.0277 1.37856   5
   4   8   2 0.72227 1.77727   5
   4   8   2 -2.0232 1.49055   4
  -5  -8  -2 100.063 6.47428   1
  -5  -8  -2 109.146 5.78740   2
  -5  -8  -2 113.234 6.17286   5
   5   8   2 110.432 6.57837   5
   5   8   2 105.739 6.84240   5
   5   8   2 115.410 7.51844   4
   5   8   2 105.773 5.30975   2
  -6  -8  -2 8.37052 2.93099   5
  -6  -8  -2 2.62828 2.97395   2
  -6  -8  -2 3.45146 1.93919   1
   6   8   2 6.95148 3.17225   5
   6   8   2 3.40609 2.44224   4
   6   8   2 8.71630 3.03597   5
   6   8   2 14.3438 3.88277   2
  -7  -8  -2 86.1818 7.35491   1
   7   8   2 72.7470 7.79132   5
   7   8   2 76.9718 6.61067   2
   7   8   2 73.5161 7.75704   4
  -8  -8  -2 -1.7871 2.96196   1
   8   8   2 6.28766 4.16332   4
   8   8   2 5.73807 4.47290   5
   8   8   2 -0.9007 3.19562   2
  -9  -8  -2 -7.9941 3.94165   1
   9   8   2 -5.2525 4.09284   4
   9   8   2 -6.2034 4.22342   2
   6  -9  -2 8.23981 4.41026   2
  -6   9   2 4.87058 3.45829   1
  -6   9   2 0.41173 2.57542   5
   5  -9  -2 22.5862 6.69675   2
  -5   9   2 28.2262 5.10195   3
  -5   9   2 27.5130 4.02227   5
  -5   9   2 30.9719 6.46343   1
   4  -9  -2 27.6485 5.62711   2
  -4   9   2 28.0863 5.80029   1
  -4   9   2 22.1498 4.00888   5
  -4   9   2 27.3698 3.36126   5
  -4   9   2 24.8066 4.94061   3
  -4   9   2 31.0604 5.22458   4
   3  -9  -2 114.699 7.11173   2
  -3   9   2 109.003 6.37817   4
  -3   9   2 118.980 6.91754   3
  -3   9   2 121.912 6.05483   4
  -3   9   2 117.017 4.88408   5
  -3   9   2 123.846 7.62566   1
  -3   9   2 120.182 5.26959   5
  -2   9   2 29.8937 4.04914   4
  -2   9   2 30.9616 2.68836   5
  -2   9   2 29.3343 4.07332   4
  -2   9   2 32.2554 4.40677   3
  -2   9   2 30.7078 2.52543   5
  -2   9   2 25.3433 4.26733   1
  -2   9   2 32.2621 6.80355   2
  -1   9   2 54.6951 2.97551   5
  -1   9   2 54.2338 4.51528   4
  -1   9   2 44.7666 4.55414   3
  -1   9   2 52.2287 2.83845   5
  -1   9   2 46.5485 5.14603   2
  -1   9   2 42.6674 4.51859   4
   0   9   2 60.6847 3.16832   5
   0   9   2 60.2739 3.19946   5
   0   9   2 53.9404 4.64659   3
   0   9   2 56.6443 4.35914   2
   0   9   2 62.1998 4.90289   4
   0   9   2 61.7825 3.62076   2
   0   9   2 56.7631 5.17103   4
  -1  -9  -2 22.8944 3.63188   1
   1   9   2 27.5712 3.10583   2
   1   9   2 29.7515 4.39859   4
   1   9   2 24.7920 2.52223   2
   1   9   2 16.2530 2.71627   5
   1   9   2 24.4919 2.57887   5
   1   9   2 24.2404 3.93359   3
  -2  -9  -2 58.6743 4.82115   1
   2   9   2 55.6634 3.09831   2
   2   9   2 52.3677 3.85737   5
   2   9   2 57.0792 3.98719   5
   2   9   2 56.7728 3.24178   2
   2   9   2 60.6019 5.55320   4
   2   9   2 60.6026 5.35636   3
  -3  -9  -2 22.6827 4.16817   1
   3   9   2 20.0006 2.54445   2
   3   9   2 20.1879 3.00102   5
   3   9   2 20.4210 2.38385   2
   3   9   2 18.7901 3.37482   5
   3   9   2 19.7652 4.77035   4
  -4  -9  -2 76.6655 4.71408   5
  -4  -9  -2 89.4020 6.05631   1
   4   9   2 90.5116 5.77165   5
   4   9   2 91.1565 5.79347   5
   4   9   2 83.8879 4.06322   2
   4   9   2 93.5663 6.84514   4
  -5  -9  -2 19.6035 4.45505   1
   5   9   2 16.3072 5.27678   5
   5   9   2 10.3954 2.68246   5
   5   9   2 16.9600 3.33630   2
  -6  -9  -2 46.2817 5.78181   1
   6   9   2 52.0902 6.40677   4
   6   9   2 48.8666 4.93415   2
   6   9   2 47.3182 6.79634   5
  -7  -9  -2 123.729 8.79553   1
   7   9   2 132.514 9.98848   4
   7   9   2 127.639 7.72817   2
   7   9   2 145.822 10.2970   5
  -8  -9  -2 2.02292 3.93355   1
   8   9   2 -2.6156 4.16789   4
   8   9   2 3.18165 3.86592   5
   5 -10  -2 39.2248 8.49037   2
  -5  10   2 51.6720 7.89199   1
  -5  10   2 47.3148 4.98908   5
  -5  10   2 52.6969 6.88720   3
   4 -10  -2 60.7966 7.59037   2
  -4  10   2 39.9847 4.64901   5
  -4  10   2 43.5299 7.28532   1
  -4  10   2 43.8737 4.10058   5
  -4  10   2 42.2090 5.91744   3
  -3  10   2 2.14974 1.47985   5
  -3  10   2 0.20892 1.46654   5
  -3  10   2 3.65509 2.32792   4
  -3  10   2 5.43640 3.15295   3
  -3  10   2 -0.5713 2.55735   1
  -2  10   2 2.81877 1.44933   5
  -2  10   2 2.78167 1.50384   5
  -2  10   2 6.11726 2.79666   3
  -2  10   2 2.64999 2.12942   4
  -2  10   2 1.18634 2.11858   1
  -1  10   2 60.1451 5.53074   4
  -1  10   2 55.0089 3.31569   5
  -1  10   2 52.9537 3.47028   5
  -1  10   2 54.3390 5.67089   3
  -1  10   2 56.1042 5.69271   4
  -1  10   2 58.1601 6.41777   2
   0  10   2 6.31242 2.35579   4
   0  10   2 6.77355 2.34461   3
   0  10   2 4.61017 1.48375   5
   0  10   2 15.2897 4.37280   2
   0  10   2 3.31988 1.61063   2
   0  10   2 8.33997 2.54792   5
  -1 -10  -2 9.40846 2.37938   1
   1  10   2 17.4164 2.79887   5
   1  10   2 14.0557 4.34391   3
   1  10   2 14.3821 4.70941   4
   1  10   2 14.4368 2.96345   5
   1  10   2 11.1922 2.50648   2
   1  10   2 10.5774 3.49009   2
  -2 -10  -2 100.653 6.30333   1
   2  10   2 91.1881 3.80505   2
   2  10   2 93.9782 6.53003   3
   2  10   2 92.3330 5.00118   5
   2  10   2 94.3476 5.12735   5
   2  10   2 84.9800 6.76559   4
  -3 -10  -2 71.7216 6.02976   1
   3  10   2 65.8769 5.82789   3
   3  10   2 71.0641 5.07307   5
   3  10   2 68.8916 6.50330   4
   3  10   2 71.9405 5.07241   5
  -4 -10  -2 17.1871 4.61017   1
   4  10   2 7.03570 2.89343   4
   4  10   2 14.7012 5.06391   3
   4  10   2 8.73157 2.13385   5
   4  10   2 9.93872 2.65589   5
  -5 -10  -2 103.499 7.65870   1
   5  10   2 117.449 7.86838   3
   5  10   2 115.789 7.51207   5
   5  10   2 104.645 8.59111   4
   5  10   2 106.864 4.97218   2
  -6 -10  -2 38.3963 6.36285   1
   6  10   2 56.9366 7.45593   3
   6  10   2 61.8558 8.08756   4
   6  10   2 61.5588 7.54585   5
  -7 -10  -2 193.641 11.1244   1
   7  10   2 196.468 12.7572   4
   7  10   2 202.164 11.9292   5
   7  10   2 198.764 11.8897   3
  -4  11   2 8.39479 3.94545   1
  -4  11   2 3.52415 2.15786   5
  -4  11   2 2.67324 3.98609   3
  -3  11   2 -3.3206 1.89366   5
  -3  11   2 -5.3802 3.08937   3
  -3  11   2 -0.8329 3.24157   1
  -3  11   2 0.37234 1.60580   5
  -2  11   2 1.52425 2.88317   3
  -2  11   2 3.94299 1.73573   5
  -2  11   2 2.22700 2.72804   1
  -2  11   2 1.72922 1.54809   5
  -1  11   2 11.1865 3.21667   5
  -1  11   2 6.39049 3.25322   3
   0  11   2 -0.9975 2.39895   3
   0  11   2 1.05084 1.62760   2
   0  11   2 -0.2658 1.55297   5
  -1 -11  -2 3.15810 2.22614   1
   1  11   2 3.90431 1.59134   5
   1  11   2 0.21425 1.56017   5
   1  11   2 3.07233 1.39383   2
   1  11   2 1.10114 2.69930   4
   1  11   2 6.29928 3.06059   3
  -2 -11  -2 4.99213 2.34927   1
   2  11   2 4.95544 2.60250   3
   2  11   2 7.20834 3.07215   4
   2  11   2 13.6752 3.72189   5
   2  11   2 4.97064 2.06407   5
   3  11   2 48.5666 5.56598   5
   3  11   2 50.2003 5.07896   5
   3  11   2 48.3148 6.22797   3
   3  11   2 49.9501 6.22249   4
  -4 -11  -2 12.4933 3.30499   1
   4  11   2 17.8056 5.11831   5
   4  11   2 10.2714 3.47533   4
   4  11   2 8.93145 3.19330   3
  -5 -11  -2 7.61544 3.33957   1
   5  11   2 5.70671 2.96306   5
   5  11   2 12.8289 4.22153   3
   5  11   2 7.00812 3.58437   4
  -6 -11  -2 8.31387 4.23403   1
   6  11   2 14.4175 4.93335   3
   6  11   2 9.97289 4.02533   5
   6  11   2 7.19543 4.28201   4
  -7 -11  -2 34.4770 9.29019   1
   7  11   2 12.6864 5.04259   4
   7  11   2 31.6535 9.67107   5
   7  11   2 11.3087 5.45228   3
  -3  12   2 7.64560 4.80673   3
  -3  12   2 1.28993 1.97076   5
  -3  12   2 6.44951 4.44663   1
  -2  12   2 0.59714 4.22181   3
  -2  12   2 -4.1614 3.05792   1
  -2  12   2 -1.0272 1.87091   5
  -1  12   2 0.53105 2.08635   5
  -1  12   2 1.62988 3.35988   3
  -1  12   2 2.05668 1.69500   5
  -1  12   2 3.24778 3.43341   4
  -1  12   2 -0.5584 2.35168   2
   0  12   2 -2.3648 1.95090   5
   0  12   2 1.21745 3.50672   4
   0  12   2 -1.0161 1.70953   5
   0  12   2 -1.1780 3.23789   3
   1  12   2 -0.1549 2.18410   5
   1  12   2 0.29727 3.02726   3
   1  12   2 6.56789 2.35147   5
   1  12   2 -0.2795 3.16940   4
  -2 -12  -2 3.19007 3.02941   1
   2  12   2 -0.7486 1.90125   5
   2  12   2 1.54791 3.29772   4
   2  12   2 -1.8547 3.07135   3
   2  12   2 1.40693 2.87156   5
  -3 -12  -2 29.2842 6.47855   1
   3  12   2 17.3684 5.12319   5
   3  12   2 15.2488 4.19488   3
  -4 -12  -2 3.20449 3.53338   1
   4  12   2 0.59532 4.06910   4
   4  12   2 -0.8093 2.64280   5
   4  12   2 -3.1513 3.82846   3
  -5 -12  -2 3.13523 3.78311   1
   5  12   2 2.10288 3.31368   5
   5  12   2 4.61562 4.30284   3
   5  12   2 8.89810 4.54023   4
  -6 -12  -2 7.36407 4.51982   1
   6  12   2 5.07153 3.97177   5
   6  12   2 1.28873 4.66196   4
   6  12   2 1.13432 4.65716   3
  -1  13   2 0.52763 4.37785   3
  -1  13   2 0.23149 2.16294   5
   0  13   2 10.0866 4.33362   4
   0  13   2 25.7505 8.18766   3
   0  13   2 7.67487 2.24864   5
   1  13   2 15.0532 4.82749   5
   1  13   2 -2.9026 4.06827   3
   1  13   2 -4.3287 3.80720   4
  -2 -13  -2 1.32376 3.29966   1
   2  13   2 0.37939 4.15400   4
   2  13   2 -6.5607 3.66915   3
  -3 -13  -2 28.7886 8.35177   1
   3  13   2 21.5955 6.20000   5
   3  13   2 28.0727 9.41221   4
  -4 -13  -2 24.7635 8.43186   1
   4  13   2 12.5084 5.15460   4
   4  13   2 25.1470 7.21262   5
   4  13   2 8.77664 5.11923   3
   4  12  -3 13.4403 5.76927   3
   4  12  -3 11.6760 4.65473   5
   4  12  -3 15.7279 5.81128   4
  -4 -12   3 29.0125 8.51027   1
   3  12  -3 3.76437 4.02918   5
   3  12  -3 10.7464 5.29539   4
   3  12  -3 8.63061 5.30838   3
  -3 -12   3 5.53578 4.12369   1
   2  12  -3 32.0429 7.73374   5
   2  12  -3 19.9678 6.19072   3
   2  12  -3 18.2719 4.77349   4
  -2 -12   3 23.2077 6.96952   1
   1  12  -3 7.45295 3.17402   5
   1  12  -3 10.5643 4.80399   3
   1  12  -3 25.4616 8.42398   4
   0  12  -3 8.11950 4.85786   3
   0  12  -3 6.00750 2.86738   5
  -1  12  -3 5.59838 3.30838   5
  -1  12  -3 -2.9199 4.33316   3
  -2  12  -3 1.71501 2.66708   5
  -2  12  -3 4.60777 5.39309   3
  -2  12  -3 0.71865 4.30177   1
   5  11  -3 42.0189 10.8781   3
   5  11  -3 14.8896 4.96192   5
   5  11  -3 12.4880 5.44778   4
  -5 -11   3 31.2841 8.63910   1
   4  11  -3 25.7787 9.16702   4
   4  11  -3 37.6162 9.48456   3
   3  11  -3 9.03783 4.94765   3
   3  11  -3 7.46625 3.30543   5
   3  11  -3 9.66603 4.15703   4
  -3 -11   3 11.9896 3.81105   1
   2  11  -3 158.961 9.12433   5
   2  11  -3 150.287 10.0676   4
   2  11  -3 133.602 10.2123   3
  -2 -11   3 130.649 9.34334   1
   1  11  -3 104.913 9.25027   3
   1  11  -3 97.7806 7.93962   4
   1  11  -3 104.892 7.01567   5
   0  11  -3 0.43543 2.83239   4
   0  11  -3 3.90379 2.59312   5
   0  11  -3 5.69756 4.02566   3
  -1  11  -3 7.75189 4.07986   3
  -1  11  -3 17.3616 4.81481   5
  -2  11  -3 3.12379 3.72057   3
  -2  11  -3 -0.0946 2.53746   5
  -2  11  -3 0.89287 3.24713   1
  -3  11  -3 -2.2812 2.37480   5
  -3  11  -3 0.11575 3.81435   1
  -3  11  -3 -1.0672 3.93085   3
  -4  11  -3 11.8827 3.27602   5
  -4  11  -3 28.6975 9.38070   3
  -4  11  -3 19.4432 5.10790   1
   6  10  -3 33.0085 9.90495   3
   6  10  -3 7.53085 5.13109   5
   6  10  -3 12.2493 4.75821   4
  -6 -10   3 11.3055 4.05188   1
   5  10  -3 46.1309 8.03858   5
   5  10  -3 45.4665 8.04619   3
   5  10  -3 44.5031 9.05169   4
  -5 -10   3 38.6246 7.61647   1
   4  10  -3 9.52453 3.71970   5
   4  10  -3 -4.0068 3.04975   4
   4  10  -3 3.79678 3.59958   3
  -4 -10   3 10.6967 3.53393   1
   3  10  -3 20.9355 6.35583   3
   3  10  -3 8.71300 3.03109   5
   2  10  -3 67.8415 6.29026   5
   2  10  -3 76.1670 7.82932   3
   2  10  -3 54.4173 6.41481   4
  -2 -10   3 55.3629 5.92151   1
   1  10  -3 2.60118 2.63473   4
   1  10  -3 4.66247 2.37308   5
   1  10  -3 5.44034 3.25458   3
   1  10  -3 1.14064 3.86886   5
  -1 -10   3 -1.4706 2.09279   1
   0  10  -3 15.2982 4.79782   4
   0  10  -3 7.47961 2.78197   5
   0  10  -3 5.22925 3.18818   3
   0  10  -3 6.43649 2.38392   5
  -1  10  -3 6.65780 2.33739   5
  -1  10  -3 7.70901 3.37153   3
  -1  10  -3 8.91930 2.27747   4
  -2  10  -3 -0.3961 2.92926   3
  -2  10  -3 -0.7912 2.59405   1
  -2  10  -3 -2.0295 2.00136   5
   2 -10   3 1.18760 2.09268   2
  -3  10  -3 40.6790 6.77072   3
  -3  10  -3 31.5022 5.23817   5
  -3  10  -3 51.0441 7.63974   1
   3 -10   3 43.8069 6.02537   2
  -4  10  -3 43.6182 7.64400   3
  -4  10  -3 34.3971 8.60877   1
  -4  10  -3 48.4538 5.74879   5
   4 -10   3 56.9286 7.76077   2
  -5  10  -3 -4.6075 3.88497   1
  -5  10  -3 1.14829 5.16971   3
  -5  10  -3 2.24452 3.13224   5
   5 -10   3 -6.4681 3.82031   2
   7   9  -3 17.2037 5.37334   4
   7   9  -3 14.7663 5.56237   5
   7   9  -3 32.1994 10.2851   3
  -7  -9   3 22.7407 7.93694   1
   6   9  -3 66.4539 9.21643   5
   6   9  -3 61.2898 9.33950   4
   6   9  -3 64.7911 8.29753   3
  -6  -9   3 70.3417 8.16459   1
   5   9  -3 7.60032 3.64235   3
   5   9  -3 -1.5421 3.30480   4
  -5  -9   3 1.03206 2.80994   1
   4   9  -3 17.0598 5.56574   3
   4   9  -3 4.31808 2.79597   5
  -4  -9   3 4.75091 2.66680   1
   3   9  -3 65.1651 7.26612   5
   3   9  -3 76.4733 6.54931   3
   3   9  -3 74.5468 6.98549   4
   3   9  -3 75.1643 6.55917   5
  -3  -9   3 62.0643 5.78548   1
  -3  -9   3 73.2437 6.31987   5
   2   9  -3 225.393 10.1547   4
   2   9  -3 218.126 9.39953   5
   2   9  -3 219.085 9.63599   5
   2   9  -3 236.321 10.8824   3
  -2  -9   3 227.061 9.86194   1
  -2  -9   3 209.336 8.75845   5
   1   9  -3 0.60807 1.87155   5
   1   9  -3 -1.4617 2.07268   5
   1   9  -3 0.77896 2.08805   3
   1   9  -3 -2.3135 1.85503   4
  -1  -9   3 -1.0138 1.70423   1
  -1  -9   3 -2.5564 2.11341   5
   0   9  -3 35.9180 5.09508   3
   0   9  -3 39.8173 4.60817   5
   0   9  -3 47.3640 4.47708   4
   0   9  -3 41.8752 4.13117   5
   0  -9   3 33.3222 4.62193   5
   0  -9   3 45.1903 5.33601   4
  -1   9  -3 97.8944 5.12473   4
  -1   9  -3 99.7149 7.14726   3
  -1   9  -3 94.9758 5.69516   5
  -1   9  -3 86.2478 4.07773   2
  -1   9  -3 85.9421 6.14103   5
   1  -9   3 91.6094 3.94373   2
   1  -9   3 86.0705 5.43645   5
  -2   9  -3 172.813 8.26541   5
  -2   9  -3 184.078 9.39068   3
  -2   9  -3 167.805 7.88549   2
  -2   9  -3 190.170 9.42345   1
  -2   9  -3 177.531 7.88964   5
   2  -9   3 181.627 7.15131   2
   2  -9   3 144.518 9.04913   5
  -3   9  -3 12.8254 3.56059   3
  -3   9  -3 8.07510 2.25545   5
  -3   9  -3 20.6084 5.61469   1
  -4   9  -3 2.37685 3.15363   1
  -4   9  -3 -2.7833 2.68453   3
  -4   9  -3 5.89293 2.32376   5
   4  -9   3 3.81436 2.88554   2
  -5   9  -3 0.81700 2.48238   5
  -5   9  -3 -0.7873 3.68280   3
  -5   9  -3 -3.3254 3.03459   1
   5  -9   3 1.91138 3.77834   2
  -6   9  -3 3.63035 5.15079   3
  -6   9  -3 4.66056 4.32880   1
  -6   9  -3 5.75740 3.46267   5
   6  -9   3 7.59054 5.12990   2
   8   8  -3 48.0629 10.2003   4
   7   8  -3 2.53683 3.98155   5
   7   8  -3 2.04243 4.47438   3
   7   8  -3 6.19157 4.16840   4
  -7  -8   3 1.86040 3.53574   1
   6   8  -3 1.63553 3.37566   5
   6   8  -3 6.64041 3.47345   4
  -6  -8   3 4.25656 2.54978   1
   5   8  -3 29.8537 6.00820   5
   5   8  -3 27.0472 5.74155   3
   5   8  -3 14.9851 3.53489   4
  -5  -8   3 21.4745 4.69609   1
  -5  -8   3 10.9899 3.63171   5
   4   8  -3 106.902 7.27386   3
   4   8  -3 97.4562 7.28460   5
   4   8  -3 93.1032 6.70579   5
   4   8  -3 102.004 7.57147   4
  -4  -8   3 105.229 6.81270   1
  -4  -8   3 97.0999 6.33473   5
   3   8  -3 317.474 12.0030   5
   3   8  -3 315.443 11.6835   5
   3   8  -3 324.437 12.7410   4
   3   8  -3 322.327 12.4949   3
  -3  -8   3 308.931 11.3787   5
  -3  -8   3 318.299 12.1244   1
   2   8  -3 16.0686 3.99751   5
   2   8  -3 15.0290 3.99324   3
   2   8  -3 20.3075 4.35210   4
   2   8  -3 17.2481 3.66038   5
  -2  -8   3 11.8009 3.68594   5
  -2  -8   3 15.3265 3.53060   1
   1   8  -3 100.762 5.52378   5
   1   8  -3 91.4577 5.60488   5
   1   8  -3 105.740 5.90598   4
   1   8  -3 98.0358 6.59579   3
  -1  -8   3 98.0376 5.28684   5
  -1  -8   3 94.3755 5.82541   1
  -1  -8   3 108.592 6.44083   4
   0   8  -3 1.00784 1.55771   5
   0   8  -3 3.18397 1.70066   4
   0   8  -3 1.86066 1.43447   5
   0   8  -3 0.87141 2.02165   3
   0  -8   3 3.45270 1.85667   4
   0  -8   3 0.36839 1.78507   5
  -1   8  -3 0.58717 1.32652   5
  -1   8  -3 3.83624 1.60169   4
  -1   8  -3 0.25525 1.30116   2
  -1   8  -3 1.86250 1.83416   3
  -1   8  -3 1.73489 1.52035   5
   1  -8   3 2.45839 1.18898   2
  -2   8  -3 0.18233 1.12044   5
  -2   8  -3 12.8652 4.15256   2
  -2   8  -3 3.41617 2.21159   3
  -2   8  -3 2.50314 1.64436   5
   2  -8   3 4.59207 1.79533   2
   2  -8   3 -0.0759 1.81119   5
  -3   8  -3 6.08177 2.42959   3
  -3   8  -3 5.97281 2.39727   1
  -3   8  -3 5.26101 2.12294   5
  -3   8  -3 1.82879 3.07013   2
  -3   8  -3 3.83013 1.94683   5
   3  -8   3 4.25886 1.88538   2
   3  -8   3 4.28011 2.11118   5
  -4   8  -3 -1.3925 2.55465   3
  -4   8  -3 3.57636 2.45320   5
  -4   8  -3 0.86236 2.39532   1
  -4   8  -3 1.24531 1.81518   5
   4  -8   3 2.72546 2.35010   2
  -5   8  -3 -0.4536 2.42139   1
  -5   8  -3 5.94823 2.48598   5
  -5   8  -3 -0.6877 2.94324   3
   5  -8   3 0.45590 2.83521   2
  -6   8  -3 7.40081 3.80848   3
  -6   8  -3 7.02445 3.90568   1
  -6   8  -3 10.9243 3.15536   5
   6  -8   3 30.9653 8.30871   2
   8   7  -3 6.82887 4.38249   4
  -8  -7   3 -1.5868 3.35761   1
   7   7  -3 -0.2639 2.71101   2
   7   7  -3 7.66044 3.95266   5
   7   7  -3 1.90711 3.65123   4
   7   7  -3 1.28651 3.46471   3
  -7  -7   3 -0.5951 2.43870   1
   6   7  -3 4.57409 3.10444   5
   6   7  -3 -0.5278 2.85838   4
   6   7  -3 4.78960 3.10602   3
  -6  -7   3 -0.7955 1.90377   1
   5   7  -3 23.1152 5.34729   5
   5   7  -3 12.0374 3.58449   5
   5   7  -3 14.1011 3.43409   4
   5   7  -3 13.7905 4.46029   3
  -5  -7   3 10.2534 2.59787   1
  -5  -7   3 9.97899 3.18412   2
  -5  -7   3 16.1161 4.80651   5
   4   7  -3 0.76543 1.90754   5
   4   7  -3 -0.3681 1.99778   3
   4   7  -3 1.12190 2.19869   5
   4   7  -3 -1.5271 1.85915   4
  -4  -7   3 -2.6158 1.80158   5
  -4  -7   3 2.10669 1.65960   1
   3   7  -3 8.90910 2.52183   3
   3   7  -3 18.6460 4.21535   4
   3   7  -3 6.65494 1.94894   5
   3   7  -3 12.9502 3.42939   5
  -3  -7   3 9.71373 3.03349   1
  -3  -7   3 6.76479 1.84848   5
   2   7  -3 113.119 5.93404   5
   2   7  -3 121.678 6.52155   4
   2   7  -3 111.846 6.19791   3
   2   7  -3 105.844 5.83124   5
  -2  -7   3 110.904 6.61706   4
  -2  -7   3 109.551 5.90132   1
   1   7  -3 118.052 5.93544   4
   1   7  -3 116.100 5.75001   5
   1   7  -3 119.924 6.60714   3
   1   7  -3 122.369 5.88208   5
  -1  -7   3 123.903 6.08422   4
  -1  -7   3 111.777 5.92708   1
  -1  -7   3 113.871 5.42220   5
   0   7  -3 31.3859 3.10981   5
   0   7  -3 27.9249 2.87715   5
   0   7  -3 26.7668 3.83599   3
   0   7  -3 36.5421 3.37638   4
   0  -7   3 31.9210 3.44049   1
   0  -7   3 36.7497 3.65053   4
   0  -7   3 29.2649 3.26054   5
  -1   7  -3 -1.1185 1.21653   4
  -1   7  -3 0.16668 1.51092   3
  -1   7  -3 0.04865 1.11315   2
  -1   7  -3 -1.2822 0.91325   5
  -1   7  -3 -0.1622 1.53602   5
   1  -7   3 0.60337 1.25034   4
   1  -7   3 2.53210 1.25022   5
   1  -7   3 -0.3939 0.99660   2
  -2   7  -3 136.081 6.23175   2
  -2   7  -3 135.444 6.42567   5
  -2   7  -3 137.587 7.04430   3
  -2   7  -3 138.300 5.97251   5
   2  -7   3 136.727 5.82308   2
   2  -7   3 141.903 5.76533   5
  -3   7  -3 22.1128 3.81180   3
  -3   7  -3 23.0183 5.09187   2
  -3   7  -3 27.1511 4.40041   1
  -3   7  -3 27.9028 3.68988   5
  -3   7  -3 15.3660 3.58689   5
   3  -7   3 21.2834 3.89010   2
   3  -7   3 18.1977 3.65451   5
  -4   7  -3 -1.5694 1.85942   5
  -4   7  -3 -0.5330 1.78624   1
  -4   7  -3 0.16764 1.41336   5
  -4   7  -3 2.82289 2.28844   3
   4  -7   3 -1.4807 1.98810   5
   4  -7   3 -3.2350 1.83545   2
  -5   7  -3 3.15806 2.06576   5
  -5   7  -3 1.75727 2.83976   3
  -5   7  -3 0.33389 2.34231   1
   5  -7   3 1.24403 2.51765   2
  -6   7  -3 0.57707 2.50159   1
  -6   7  -3 3.72519 3.17050   3
  -6   7  -3 1.12422 2.24311   5
   6  -7   3 4.24552 2.87324   2
  -7   7  -3 24.3456 7.35171   1
  -7   7  -3 24.6342 5.99941   5
  -7   7  -3 17.4263 4.73308   3
   7  -7   3 11.3158 4.43258   2
   8   6  -3 70.9260 10.2916   4
   8   6  -3 58.3274 10.4026   5
   8   6  -3 70.2010 8.91653   2
  -8  -6   3 51.1667 8.33215   1
   7   6  -3 35.9128 6.91014   4
   7   6  -3 22.0352 4.23909   5
   7   6  -3 43.3031 6.21432   3
   7   6  -3 46.8617 6.29151   2
  -7  -6   3 31.6956 6.30421   1
  -7  -6   3 28.9061 7.19583   5
   6   6  -3 24.8120 4.67961   3
   6   6  -3 19.8802 4.89867   4
   6   6  -3 22.2516 5.09112   3
   6   6  -3 14.0550 3.99282   2
  -6  -6   3 22.2726 5.61361   2
  -6  -6   3 27.9933 5.88361   5
  -6  -6   3 24.6900 4.70204   1
   5   6  -3 -1.4993 2.63127   5
   5   6  -3 -1.0049 2.79254   3
   5   6  -3 0.93993 2.05692   5
   5   6  -3 3.62588 2.36642   4
   5   6  -3 -0.6222 1.93227   3
   5   6  -3 1.51629 1.41750   2
  -5  -6   3 0.32122 1.69201   2
  -5  -6   3 0.37415 1.58267   1
  -5  -6   3 0.79397 2.05117   5
   4   6  -3 55.6220 4.52901   3
   4   6  -3 50.4041 4.90486   4
   4   6  -3 53.9019 5.40537   5
   4   6  -3 60.3992 5.06127   3
   4   6  -3 61.3736 5.07661   5
  -4  -6   3 60.1629 4.59353   1
  -4  -6   3 60.1628 3.19046   2
  -4  -6   3 54.4113 4.64787   5
   3   6  -3 27.4264 4.04503   5
   3   6  -3 27.8020 3.83513   5
   3   6  -3 35.1965 4.06886   4
   3   6  -3 22.7580 4.08119   1
   3   6  -3 25.7251 3.52053   3
  -3  -6   3 20.2999 4.10531   5
  -3  -6   3 27.9588 3.23868   1
  -3  -6   3 25.3737 3.33446   5
   2   6  -3 18.6523 3.20998   4
   2   6  -3 14.2578 2.87741   5
   2   6  -3 19.1780 3.01081   3
   2   6  -3 15.2285 2.70306   5
   2   6  -3 9.61473 3.02754   1
  -2  -6   3 17.2931 2.66709   1
  -2  -6   3 19.2101 3.18540   5
  -2  -6   3 13.6865 2.84559   5
  -2  -6   3 9.77443 2.34051   4
   1   6  -3 1.44845 1.03897   5
   1   6  -3 -0.7510 1.05302   4
   1   6  -3 -0.0176 1.24367   1
   1   6  -3 1.61645 1.34142   5
   1   6  -3 3.25231 1.64691   3
  -1  -6   3 3.11427 1.25138   5
  -1  -6   3 2.79763 1.48063   4
  -1  -6   3 1.94567 1.05691   1
   0   6  -3 64.0029 3.62528   4
   0   6  -3 64.3954 3.71259   5
   0   6  -3 61.2457 4.37613   3
   0   6  -3 63.4907 2.42865   2
   0   6  -3 56.6457 4.06414   1
   0   6  -3 65.0973 3.81197   5
   0  -6   3 61.1950 4.56029   3
   0  -6   3 62.3298 3.97121   1
   0  -6   3 61.4320 3.59978   5
   0  -6   3 63.6041 2.41625   2
   0  -6   3 62.3663 3.36421   5
   0  -6   3 60.2551 3.84720   4
  -1   6  -3 88.4875 3.90624   2
  -1   6  -3 88.1870 3.76351   4
  -1   6  -3 87.7294 5.13201   1
  -1   6  -3 81.9264 5.03987   3
  -1   6  -3 82.8227 4.49980   5
  -1   6  -3 87.3063 4.24339   5
   1  -6   3 95.7081 4.36962   5
   1  -6   3 91.7890 3.79712   2
   1  -6   3 83.3441 5.42688   3
   1  -6   3 94.2437 3.90494   4
   1  -6   3 75.3062 4.02680   5
  -2   6  -3 61.7551 4.37133   1
  -2   6  -3 65.1962 4.18858   2
  -2   6  -3 62.8177 3.77211   5
  -2   6  -3 62.9591 4.06503   5
  -2   6  -3 60.4667 4.35329   3
   2  -6   3 69.1416 3.96755   5
   2  -6   3 63.5865 3.84135   2
  -3   6  -3 48.2244 5.12663   2
  -3   6  -3 64.4645 4.30364   5
  -3   6  -3 62.5144 4.73353   3
  -3   6  -3 57.8200 3.97702   5
  -3   6  -3 55.3359 4.50529   1
   3  -6   3 63.7269 4.01260   5
   3  -6   3 60.3287 4.33744   2
  -4   6  -3 121.806 6.01323   5
  -4   6  -3 111.174 6.49131   5
  -4   6  -3 119.295 6.55016   3
  -4   6  -3 120.229 6.87356   1
   4  -6   3 117.756 5.71207   5
   4  -6   3 113.136 6.53530   2
  -5   6  -3 31.2689 4.69337   1
  -5   6  -3 23.6068 4.84428   5
  -5   6  -3 27.2061 4.59868   3
  -5   6  -3 27.2730 3.89490   5
   5  -6   3 28.5465 4.76799   2
   5  -6   3 34.4023 4.17460   5
  -6   6  -3 13.8583 3.31949   3
  -6   6  -3 10.3921 2.60487   5
  -6   6  -3 17.6881 5.21415   1
   6  -6   3 11.2638 3.16571   2
  -7   6  -3 3.26414 3.15610   3
  -7   6  -3 -0.4962 2.23378   5
  -7   6  -3 0.84785 3.13515   1
   7  -6   3 -5.3170 2.82382   2
  -8   6  -3 4.62546 4.25817   1
  -8   6  -3 -1.0593 3.46669   5
   8  -6   3 8.62204 4.53270   2
   9   5  -3 -3.2216 3.96357   4
   9   5  -3 -6.7285 4.84966   2
  -9  -5   3 -3.7439 3.75608   1
   8   5  -3 10.5197 3.70355   4
   8   5  -3 6.82035 5.48408   5
   8   5  -3 27.4463 7.84466   2
  -8  -5   3 8.48845 3.20037   1
  -8  -5   3 9.95195 4.35411   5
   7   5  -3 47.8337 6.29066   2
   7   5  -3 44.9531 5.49275   3
   7   5  -3 56.7404 8.08611   5
   7   5  -3 36.6541 6.08396   4
  -7  -5   3 35.7534 5.59025   1
  -7  -5   3 42.0372 7.28639   5
   6   5  -3 25.7396 3.95394   3
   6   5  -3 32.2591 6.03661   5
   6   5  -3 15.1441 3.26118   3
   6   5  -3 22.5035 5.14241   4
   6   5  -3 20.3216 4.36126   2
  -6  -5   3 17.6390 3.49205   5
  -6  -5   3 18.9509 5.87425   2
  -6  -5   3 22.6120 4.49691   1
   5   5  -3 1.81883 2.14045   5
   5   5  -3 1.60315 1.67101   4
   5   5  -3 2.09219 1.58058   2
   5   5  -3 1.03207 1.57276   3
   5   5  -3 3.00684 1.89438   5
  -5  -5   3 0.40043 1.78083   5
  -5  -5   3 2.40446 1.72604   1
  -5  -5   3 1.14621 1.81414   2
   4   5  -3 0.20656 1.37142   5
   4   5  -3 1.88850 1.60908   5
   4   5  -3 0.58849 1.34825   2
   4   5  -3 0.97499 1.54592   4
   4   5  -3 -1.8015 1.90076   1
   4   5  -3 0.09286 1.39764   3
   4   5  -3 2.30249 1.79507   3
  -4  -5   3 0.58823 1.26624   2
  -4  -5   3 2.55407 2.11988   5
  -4  -5   3 0.40668 1.05965   1
  -4  -5   3 0.01517 1.32191   5
   3   5  -3 4.88970 1.54405   5
   3   5  -3 0.87674 1.32859   3
   3   5  -3 2.07013 1.43367   1
   3   5  -3 4.07162 1.45759   5
   3   5  -3 1.06597 1.30494   4
  -3  -5   3 6.35960 1.69685   2
  -3  -5   3 2.88103 1.10618   5
  -3  -5   3 11.5287 3.68526   4
  -3  -5   3 4.07567 1.42406   1
  -3  -5   3 4.44826 1.61414   5
   2   5  -3 9.60923 2.19668   3
   2   5  -3 4.57145 1.36690   5
   2   5  -3 3.84610 1.32909   5
   2   5  -3 2.37248 1.03569   4
   2   5  -3 4.60776 1.32731   1
  -2  -5   3 4.91118 1.31528   5
  -2  -5   3 2.83331 1.06911   1
  -2  -5   3 7.40466 2.38205   5
  -2  -5   3 5.52882 1.76601   4
   1   5  -3 16.9465 2.39769   4
   1   5  -3 17.1094 2.37037   5
   1   5  -3 18.8932 2.64671   3
   1   5  -3 17.5690 2.45751   1
   1   5  -3 16.9155 2.40292   5
  -1  -5   3 21.6365 2.85343   4
  -1  -5   3 23.0617 2.31264   5
  -1  -5   3 18.7186 2.64780   3
  -1  -5   3 18.9959 2.35907   5
  -1  -5   3 17.0067 2.14708   1
   0   5  -3 -1.0726 0.94092   3
   0   5  -3 0.66644 0.56677   2
   0   5  -3 0.81944 0.96272   1
   0   5  -3 -0.0920 0.77525   5
   0   5  -3 1.08422 0.72947   5
   0  -5   3 6.27080 1.94935   4
   0  -5   3 0.90622 0.79794   5
   0  -5   3 0.97010 0.57049   2
   0  -5   3 -0.0777 0.73889   1
   0  -5   3 -0.3443 1.32595   3
  -1   5  -3 81.1213 3.38893   4
  -1   5  -3 78.6381 4.52568   3
  -1   5  -3 78.9518 3.85941   5
  -1   5  -3 93.7512 4.60703   1
   1  -5   3 83.8761 3.58038   2
   1  -5   3 81.3979 3.97418   5
   1  -5   3 82.6357 3.44477   4
   1  -5   3 77.6570 3.67375   5
   1  -5   3 86.3219 4.56693   3
  -2   5  -3 -0.3020 1.14129   2
  -2   5  -3 0.81378 1.01555   5
  -2   5  -3 1.38426 1.07293   1
  -2   5  -3 0.64439 1.16753   3
  -2   5  -3 0.32262 0.91208   5
  -2   5  -3 -0.1704 1.16579   1
   2  -5   3 -1.2059 0.91478   2
   2  -5   3 0.62080 0.85608   5
   2  -5   3 0.76245 1.50702   3
  -3   5  -3 151.569 7.06720   1
  -3   5  -3 152.392 6.97996   2
  -3   5  -3 161.654 6.53208   5
  -3   5  -3 166.852 7.07082   1
  -3   5  -3 160.719 6.36611   5
  -3   5  -3 157.084 6.92724   3
   3  -5   3 155.713 6.63517   2
   3  -5   3 144.145 7.32455   3
   3  -5   3 155.506 6.09166   5
  -4   5  -3 6.94375 2.04198   5
  -4   5  -3 2.04991 2.66279   2
  -4   5  -3 8.28309 2.12660   1
  -4   5  -3 11.5120 3.28886   3
  -4   5  -3 6.22334 1.67635   5
   4  -5   3 9.84777 3.13927   5
   4  -5   3 9.70886 3.23369   2
   4  -5   3 7.56675 2.99879   3
  -5   5  -3 53.8019 5.03463   1
  -5   5  -3 59.3930 5.41386   5
  -5   5  -3 58.2937 4.68546   5
  -5   5  -3 53.0097 4.76026   3
   5  -5   3 60.5978 5.42919   2
   5  -5   3 61.3467 4.52303   5
  -6   5  -3 16.1833 4.01992   3
  -6   5  -3 13.4186 4.30145   5
  -6   5  -3 10.2427 3.26144   5
  -6   5  -3 11.4622 2.95241   1
   6  -5   3 17.6900 5.29588   2
  -7   5  -3 1.42182 2.22890   5
  -7   5  -3 6.95739 3.10304   1
  -7   5  -3 6.98032 3.27405   3
   7  -5   3 6.31258 3.49407   2
  -8   5  -3 1.42782 2.97721   1
  -8   5  -3 0.68344 3.14306   5
  -8   5  -3 1.67298 3.34626   3
   8  -5   3 0.61869 3.73877   2
   9   4  -3 5.89959 4.81758   2
   9   4  -3 6.11912 4.51989   4
  -9  -4   3 12.1753 3.89700   1
  -9  -4   3 14.1850 5.68518   5
   8   4  -3 68.0394 8.24693   2
   8   4  -3 47.5445 8.02887   4
  -8  -4   3 65.4176 6.86950   1
  -8  -4   3 54.5475 8.59018   5
   7   4  -3 -0.1315 2.09885   3
   7   4  -3 2.95471 2.85042   4
   7   4  -3 5.24444 2.57087   2
   7   4  -3 3.58044 2.78998   5
  -7  -4   3 2.34535 2.08569   1
  -7  -4   3 2.96684 2.78051   5
   6   4  -3 1.45466 1.85636   5
   6   4  -3 1.49331 1.71205   3
   6   4  -3 1.78531 1.97364   2
   6   4  -3 2.43576 1.72496   3
   6   4  -3 1.29905 1.80511   4
  -6  -4   3 2.09710 1.64668   1
  -6  -4   3 -5.1255 3.13726   5
  -6  -4   3 -2.5269 1.69315   5
   5   4  -3 47.3750 4.87767   5
   5   4  -3 48.5121 3.89486   2
   5   4  -3 48.8601 3.63060   3
   5   4  -3 42.1377 4.62127   4
   5   4  -3 47.7342 3.86016   3
   5   4  -3 51.4131 4.84328   5
  -5  -4   3 46.3353 4.72185   5
  -5  -4   3 45.5558 4.05232   1
  -5  -4   3 46.2385 4.67078   5
  -5  -4   3 49.0967 4.56261   2
   4   4  -3 247.559 8.32980   2
   4   4  -3 249.746 8.55468   3
   4   4  -3 243.937 9.68434   4
   4   4  -3 255.256 9.29907   5
   4   4  -3 238.596 9.12178   1
   4   4  -3 244.911 9.08987   5
   4   4  -3 251.660 8.47917   3
  -4  -4   3 297.812 12.6617   4
  -4  -4   3 247.414 9.31300   5
  -4  -4   3 247.723 8.28158   2
  -4  -4   3 248.871 9.03477   1
   3   4  -3 20.3076 2.63948   5
   3   4  -3 19.3862 2.93270   4
   3   4  -3 23.0025 2.57433   1
   3   4  -3 23.4466 2.89768   5
   3   4  -3 20.7949 2.43723   3
  -3  -4   3 18.3544 2.55985   5
  -3  -4   3 20.9224 2.11833   2
  -3  -4   3 23.0785 2.79158   5
  -3  -4   3 20.9081 2.24646   1
  -3  -4   3 19.7359 3.08307   4
   2   4  -3 72.2570 4.17748   4
   2   4  -3 69.0494 3.77182   5
   2   4  -3 71.7181 3.78499   3
   2   4  -3 66.4846 3.69420   1
   2   4  -3 72.7513 3.85577   5
  -2  -4   3 70.7724 2.76782   2
  -2  -4   3 74.0683 3.73278   1
  -2  -4   3 76.7299 4.30604   4
  -2  -4   3 69.9248 3.80750   5
  -2  -4   3 69.9416 2.75506   2
  -2  -4   3 72.7347 3.81844   5
   1   4  -3 6.62896 1.81849   5
   1   4  -3 2.75423 0.91162   4
   1   4  -3 5.79655 1.79818   3
   1   4  -3 6.75248 1.50247   1
   1   4  -3 5.52466 1.77516   5
  -1  -4   3 3.70829 1.05083   5
  -1  -4   3 6.53732 0.96467   2
  -1  -4   3 4.06857 1.31268   4
  -1  -4   3 5.44242 0.93812   2
  -1  -4   3 4.90652 1.13716   5
  -1  -4   3 3.69151 0.91446   1
  -1  -4   3 4.39708 1.26695   3
   0   4  -3 19.0043 1.87952   4
   0   4  -3 20.7559 2.03943   5
   0   4  -3 18.8773 1.48366   2
   0   4  -3 18.4823 1.92873   5
   0   4  -3 19.2932 2.08192   1
   0   4  -3 22.0531 2.45658   3
   0  -4   3 17.6947 1.90004   5
   0  -4   3 21.2815 2.07383   5
   0  -4   3 17.2505 2.44984   3
   0  -4   3 21.9181 2.08453   4
   0  -4   3 19.1498 1.97643   1
   0  -4   3 17.6900 1.38326   2
  -1   4  -3 376.788 11.0760   5
  -1   4  -3 359.085 10.2602   4
  -1   4  -3 371.654 10.6604   2
  -1   4  -3 386.745 11.4180   1
  -1   4  -3 362.941 11.6431   3
  -1   4  -3 389.288 11.3045   5
   1  -4   3 381.048 10.3446   4
   1  -4   3 385.823 10.8523   5
   1  -4   3 375.737 10.6635   2
   1  -4   3 381.919 11.6637   3
  -2   4  -3 96.8374 4.49269   2
  -2   4  -3 94.8141 4.58142   1
  -2   4  -3 94.3877 4.64243   3
  -2   4  -3 104.706 4.46841   5
  -2   4  -3 100.738 4.67327   1
  -2   4  -3 95.3871 4.22990   5
   2  -4   3 83.2433 5.59605   5
   2  -4   3 94.1766 4.00548   5
   2  -4   3 99.4475 4.36366   2
   2  -4   3 104.426 4.82166   3
  -3   4  -3 78.3296 4.39216   3
  -3   4  -3 82.8890 4.69063   2
  -3   4  -3 77.2214 4.28206   5
  -3   4  -3 76.9959 3.95193   5
  -3   4  -3 80.8282 4.57772   1
   3  -4   3 74.8135 3.60020   5
   3  -4   3 74.9983 4.68339   3
   3  -4   3 75.8267 4.34915   2
   3  -4   3 77.9400 3.97221   5
  -4   4  -3 1.96267 1.30579   5
  -4   4  -3 -2.3410 1.90623   2
  -4   4  -3 1.01056 1.44403   3
  -4   4  -3 -0.8400 1.15046   1
  -4   4  -3 1.08298 1.56310   5
   4  -4   3 1.24114 1.63637   2
   4  -4   3 1.27435 1.37604   5
   4  -4   3 -3.3891 1.79158   3
  -5   4  -3 -3.0612 1.85488   5
  -5   4  -3 1.17536 1.57782   1
  -5   4  -3 -1.1784 1.30812   3
  -5   4  -3 -0.3379 1.15121   5
   5  -4   3 3.24695 2.21764   3
   5  -4   3 2.25358 1.71921   5
   5  -4   3 3.02345 2.05250   2
  -6   4  -3 3.96439 2.33262   5
  -6   4  -3 3.53724 2.16369   1
  -6   4  -3 0.71730 1.73540   3
  -6   4  -3 1.55454 1.66129   5
   6  -4   3 4.32707 2.49783   5
   6  -4   3 4.00649 2.31485   2
  -7   4  -3 29.7139 4.71761   3
  -7   4  -3 25.1487 5.24138   5
  -7   4  -3 21.8079 5.28376   1
   7  -4   3 27.5612 6.34680   2
  -8   4  -3 1.27047 2.81439   1
  -8   4  -3 6.34795 3.55587   5
  -8   4  -3 8.07315 3.17213   3
   8  -4   3 6.56503 3.80847   2
   9   3  -3 41.3749 8.89741   4
   9   3  -3 37.0121 9.97407   2
  -9  -3   3 38.4638 7.93642   1
  -9  -3   3 54.1513 9.74589   5
   8   3  -3 1.65035 3.27424   2
   8   3  -3 7.95058 3.34789   4
  -8  -3   3 3.53820 3.36231   5
  -8  -3   3 3.93905 2.71094   1
   7   3  -3 -0.0904 2.37589   4
   7   3  -3 2.52457 2.50387   2
  -7  -3   3 2.00444 2.60580   5
  -7  -3   3 -2.6415 1.73853   1
  -7  -3   3 5.71794 3.71869   5
   6   3  -3 4.33338 2.30612   4
   6   3  -3 13.4867 3.93592   2
   6   3  -3 3.55819 2.65470   5
   6   3  -3 3.52448 1.46449   3
   6   3  -3 4.32269 1.58276   3
  -6  -3   3 4.50633 1.74927   1
  -6  -3   3 0.89472 1.97683   5
  -6  -3   3 7.66150 2.41105   5
   5   3  -3 9.99262 3.32011   5
   5   3  -3 4.08651 1.54925   4
   5   3  -3 5.07954 1.79148   3
   5   3  -3 10.2318 2.81993   2
   5   3  -3 6.38651 2.28693   1
   5   3  -3 8.11991 2.22016   3
   5   3  -3 3.70240 1.55610   5
  -5  -3   3 8.62272 2.59375   1
  -5  -3   3 2.77796 1.73803   5
  -5  -3   3 3.28599 1.53066   5
  -5  -3   3 3.64648 1.93517   2
   4   3  -3 549.214 17.2598   4
   4   3  -3 568.748 16.6056   5
   4   3  -3 571.056 16.4982   1
   4   3  -3 567.047 15.4622   3
   4   3  -3 564.750 16.1211   2
   4   3  -3 560.441 16.5268   5
  -4  -3   3 573.016 16.5211   1
  -4  -3   3 566.225 16.1410   2
  -4  -3   3 542.242 17.2841   4
  -4  -3   3 575.434 16.6257   5
  -4  -3   3 547.444 16.5812   5
   3   3  -3 187.336 6.25528   2
   3   3  -3 174.982 7.22083   4
   3   3  -3 175.345 6.74125   5
   3   3  -3 180.029 6.69979   5
   3   3  -3 198.519 6.69061   1
  -3  -3   3 187.150 6.87753   5
  -3  -3   3 193.036 7.46640   4
  -3  -3   3 181.204 6.18329   2
  -3  -3   3 176.262 6.82960   5
  -3  -3   3 175.721 6.55422   1
   2   3  -3 234.276 7.31011   1
   2   3  -3 226.485 7.38029   5
   2   3  -3 215.489 7.78652   4
  -2  -3   3 221.796 7.45394   5
  -2  -3   3 230.362 7.83923   4
  -2  -3   3 217.400 7.19746   3
  -2  -3   3 224.601 6.68191   2
  -2  -3   3 215.596 7.32818   5
  -2  -3   3 220.231 7.25276   1
   1   3  -3 17.0219 1.76885   5
   1   3  -3 16.1162 1.58369   1
   1   3  -3 15.2221 1.78153   5
   1   3  -3 13.9600 1.81846   3
  -1  -3   3 17.4448 1.76172   5
  -1  -3   3 15.3778 1.50085   1
  -1  -3   3 15.7264 1.90696   4
  -1  -3   3 17.0081 1.85310   3
  -1  -3   3 14.8727 1.25683   2
  -1  -3   3 16.7961 1.28230   2
   0   3  -3 0.07242 0.59394   4
   0   3  -3 -0.0022 0.50387   2
   0   3  -3 0.02925 0.69814   3
   0   3  -3 -0.3652 0.56671   5
   0   3  -3 0.07195 0.56648   5
   0   3  -3 -0.6045 0.47471   1
   0  -3   3 -0.0999 0.63663   4
   0  -3   3 -0.3260 0.52437   5
   0  -3   3 -0.3289 0.75845   3
   0  -3   3 0.46113 0.51679   2
   0  -3   3 0.90796 0.61938   5
   0  -3   3 0.30948 0.50575   1
  -1   3  -3 0.08587 0.53095   4
  -1   3  -3 2.59175 0.79813   1
  -1   3  -3 0.27310 0.72150   3
  -1   3  -3 0.60837 0.63485   2
   1  -3   3 0.53068 0.55435   4
   1  -3   3 0.33145 0.71195   5
   1  -3   3 0.44448 0.57201   2
   1  -3   3 0.88252 0.79772   3
   1  -3   3 0.15990 0.53351   5
  -2   3  -3 827.552 21.9339   2
  -2   3  -3 807.103 22.2192   3
  -2   3  -3 826.857 21.9543   5
  -2   3  -3 821.465 22.0061   1
  -2   3  -3 824.736 21.7566   5
   2  -3   3 793.595 22.0930   2
   2  -3   3 832.744 21.5693   5
   2  -3   3 829.770 22.2356   3
   2  -3   3 831.662 21.7679   5
  -3   3  -3 0.89845 1.04792   3
  -3   3  -3 1.32959 1.19980   2
  -3   3  -3 2.97954 1.03205   5
  -3   3  -3 1.85942 0.92745   5
  -3   3  -3 0.74953 0.87795   1
   3  -3   3 1.05746 0.96455   5
   3  -3   3 1.74313 1.06891   5
   3  -3   3 0.91395 1.08994   2
   3  -3   3 2.98113 1.40931   3
  -4   3  -3 135.448 6.16843   1
  -4   3  -3 129.678 6.01461   5
  -4   3  -3 119.335 6.47758   2
  -4   3  -3 132.135 5.76579   3
  -4   3  -3 142.912 5.90986   5
   4  -3   3 136.821 6.05057   3
   4  -3   3 128.375 5.34751   5
   4  -3   3 128.075 6.07020   5
   4  -3   3 138.126 6.41254   2
  -5   3  -3 26.4031 3.50463   1
  -5   3  -3 21.6706 2.88090   3
  -5   3  -3 26.0209 4.10280   5
  -5   3  -3 20.4655 2.93967   5
   5  -3   3 21.8986 3.93074   2
   5  -3   3 19.1611 3.78148   3
  -6   3  -3 7.24038 2.40865   5
  -6   3  -3 6.78674 2.15751   3
  -6   3  -3 16.2746 3.91441   1
  -6   3  -3 6.51212 1.92973   5
   6  -3   3 3.91659 2.89619   3
   6  -3   3 12.7662 4.49697   2
  -7   3  -3 0.60326 1.99453   1
  -7   3  -3 0.66327 2.00505   3
  -7   3  -3 -2.7648 1.90237   5
   7  -3   3 -0.4963 2.38647   2
   7  -3   3 2.71533 2.39756   5
  -8   3  -3 51.7511 5.31346   3
  -8   3  -3 36.5101 6.32208   5
  -8   3  -3 31.6647 6.12968   1
   8  -3   3 48.0095 7.49264   2
  -9   3  -3 6.77757 4.40871   5
  -9   3  -3 6.03568 3.36976   1
   9  -3   3 -5.6705 3.83903   2
   9   2  -3 -2.8416 3.54844   4
   9   2  -3 3.47907 4.47246   2
  -9  -2   3 -0.8887 3.41227   1
  -9  -2   3 -2.6895 3.88464   5
   8   2  -3 40.9222 6.82071   4
   8   2  -3 58.9517 7.72122   2
  -8  -2   3 40.8583 6.96859   5
  -8  -2   3 31.4501 5.52934   1
   7   2  -3 6.16882 2.61030   4
   7   2  -3 1.12360 2.57095   5
   7   2  -3 4.30303 2.56259   2
  -7  -2   3 2.60221 2.16167   5
  -7  -2   3 4.35784 2.91671   5
  -7  -2   3 3.26087 2.05383   1
   6   2  -3 29.1738 4.13511   5
   6   2  -3 30.0389 4.45648   4
   6   2  -3 27.5130 4.00973   2
  -6  -2   3 26.7931 4.15435   5
  -6  -2   3 22.9978 5.07134   5
  -6  -2   3 25.0165 3.64245   1
   5   2  -3 1.14442 1.25483   5
   5   2  -3 -0.2804 0.85344   3
   5   2  -3 -0.4088 0.88782   3
   5   2  -3 -0.8550 1.64098   1
   5   2  -3 -2.2920 1.75405   5
   5   2  -3 0.37971 1.26091   4
   5   2  -3 -0.1496 1.28274   2
  -5  -2   3 1.28395 1.21013   1
  -5  -2   3 0.11761 1.89536   2
  -5  -2   3 0.72702 1.59664   5
  -5  -2   3 0.00703 1.31305   5
   4   2  -3 7.23979 2.37784   5
   4   2  -3 13.1391 2.33516   2
   4   2  -3 11.2093 2.38146   5
   4   2  -3 13.6192 1.66282   3
   4   2  -3 12.6135 2.84598   4
   4   2  -3 14.7821 1.77512   3
   4   2  -3 17.2245 2.63427   1
  -4  -2   3 13.1583 2.95235   2
  -4  -2   3 13.8393 2.62224   5
  -4  -2   3 13.0891 2.87393   4
  -4  -2   3 11.0932 2.00876   1
  -4  -2   3 10.0689 2.59151   5
   3   2  -3 92.6861 4.23134   5
   3   2  -3 84.9725 4.20081   2
   3   2  -3 93.3886 4.17480   1
   3   2  -3 93.1433 4.24184   5
   3   2  -3 93.7092 4.78266   4
   3   2  -3 98.5775 3.65040   3
  -3  -2   3 86.8049 4.31064   5
  -3  -2   3 91.8509 4.06785   1
  -3  -2   3 96.8233 4.24024   2
  -3  -2   3 95.7771 4.65190   4
   2   2  -3 97.1171 4.00407   5
   2   2  -3 97.1641 4.07003   5
   2   2  -3 98.4369 3.81041   2
   2   2  -3 99.8272 3.88934   1
   2   2  -3 94.5760 4.43684   4
   2   2  -3 98.5313 3.80391   3
  -2  -2   3 101.484 3.82333   3
  -2  -2   3 104.830 3.92241   1
  -2  -2   3 100.884 4.16785   5
  -2  -2   3 99.5841 3.86005   2
   1   2  -3 866.681 22.9746   3
   1   2  -3 808.100 22.5238   1
   1   2  -3 871.471 23.3016   4
   1   2  -3 869.547 23.0060   5
   1   2  -3 925.190 23.1877   5
  -1  -2   3 885.707 22.6038   2
  -1  -2   3 892.086 23.3221   4
  -1  -2   3 951.285 22.7799   1
  -1  -2   3 893.779 22.9896   3
  -1  -2   3 908.215 22.5933   2
  -1  -2   3 899.782 23.0444   5
   0   2  -3 78.3154 2.97139   2
   0   2  -3 73.3473 3.29741   3
   0   2  -3 77.4100 2.95285   1
   0   2  -3 75.9889 3.13280   4
   0   2  -3 81.2512 3.29909   5
   0   2  -3 77.1362 3.15691   5
   0  -2   3 79.4809 3.33582   3
   0  -2   3 85.9550 3.23614   5
   0  -2   3 80.5793 3.23469   4
   0  -2   3 81.4995 2.99472   1
   0  -2   3 78.9058 3.24548   5
   0  -2   3 76.1475 2.92336   2
  -1   2  -3 124.476 4.34357   1
  -1   2  -3 124.174 4.03067   4
  -1   2  -3 124.994 4.41242   2
  -1   2  -3 118.215 4.39465   5
  -1   2  -3 126.359 4.52259   5
   1  -2   3 127.501 4.53221   5
   1  -2   3 129.389 4.07080   4
   1  -2   3 122.060 4.38895   2
   1  -2   3 129.516 4.74002   3
   1  -2   3 127.647 4.42890   5
  -2   2  -3 0.22268 0.68808   3
  -2   2  -3 -0.4985 0.72108   2
  -2   2  -3 0.42868 0.61317   5
  -2   2  -3 1.66200 0.72400   5
   2  -2   3 0.25796 0.38081   4
   2  -2   3 1.11683 0.74955   3
   2  -2   3 0.55582 0.58059   5
   2  -2   3 0.84963 0.71475   5
  -3   2  -3 22.1451 2.54253   2
  -3   2  -3 22.1604 2.19920   3
  -3   2  -3 18.2428 2.09681   5
  -3   2  -3 27.5840 2.33160   1
  -3   2  -3 22.1047 2.25616   5
   3  -2   3 23.1978 2.57749   2
   3  -2   3 22.0584 2.38426   3
   3  -2   3 25.0901 2.05950   5
   3  -2   3 24.5966 2.40147   5
   3  -2   3 23.1828 2.27752   1
  -4   2  -3 73.7133 4.14363   1
  -4   2  -3 67.5522 4.51273   2
  -4   2  -3 79.8657 4.35625   5
  -4   2  -3 71.9973 3.98858   3
  -4   2  -3 75.0510 4.04111   5
   4  -2   3 74.3941 4.26279   3
   4  -2   3 73.4506 4.51799   2
   4  -2   3 76.6209 4.33079   1
   4  -2   3 77.1994 4.07474   5
   4  -2   3 67.0645 3.89529   5
  -5   2  -3 12.5085 2.74945   5
  -5   2  -3 10.7873 3.25624   5
  -5   2  -3 17.6699 3.12114   1
  -5   2  -3 14.4554 2.60598   3
   5  -2   3 20.3570 3.05673   3
   5  -2   3 15.1387 3.39177   2
   5  -2   3 14.6886 3.19076   5
   5  -2   3 17.1588 1.63928   4
   5  -2   3 17.2101 1.80683   4
   5  -2   3 18.0759 3.19169   5
  -6   2  -3 13.2281 3.35744   5
  -6   2  -3 11.4320 3.12613   1
  -6   2  -3 19.5751 4.23092   5
  -6   2  -3 14.7577 3.14529   3
   6  -2   3 10.2289 3.36870   5
   6  -2   3 11.2583 1.89163   4
   6  -2   3 13.8113 3.60203   3
   6  -2   3 8.92372 2.49136   2
  -7   2  -3 4.49522 2.33212   1
  -7   2  -3 6.93144 2.98223   5
  -7   2  -3 3.62960 2.04773   3
  -7   2  -3 4.11604 2.07594   5
   7  -2   3 2.84419 2.01932   2
   7  -2   3 7.33897 2.53346   4
   7  -2   3 3.54291 2.61166   5
  -8   2  -3 33.0935 4.78786   3
  -8   2  -3 37.5474 6.49153   5
  -8   2  -3 25.6823 5.44948   1
   8  -2   3 19.8901 6.19241   2
  -9   2  -3 0.46677 3.45283   5
  -9   2  -3 -3.7348 2.89392   1
   9  -2   3 0.40383 3.49777   2
   9   1  -3 1.32852 3.98806   4
   9   1  -3 -0.8051 4.23956   2
  -9  -1   3 -5.6135 3.01308   1
  -9  -1   3 -5.4703 2.89429   5
   8   1  -3 5.95550 2.87509   4
   8   1  -3 7.42833 3.35191   2
  -8  -1   3 0.44731 2.35746   1
  -8  -1   3 3.98054 3.21361   5
   7   1  -3 67.4385 6.33834   5
   7   1  -3 78.0134 6.40615   2
   7   1  -3 79.2570 6.46768   4
  -7  -1   3 68.5849 5.52275   1
  -7  -1   3 76.8867 6.11214   5
   6   1  -3 343.941 12.5309   2
   6   1  -3 325.541 12.2296   4
   6   1  -3 339.817 11.5444   5
  -6  -1   3 344.231 12.1432   1
  -6  -1   3 325.500 11.8477   5
  -6  -1   3 314.491 11.9649   5
   5   1  -3 38.5575 3.98875   4
   5   1  -3 36.5290 3.52407   2
   5   1  -3 36.9354 3.78516   1
   5   1  -3 39.2176 3.34645   5
  -5  -1   3 35.5006 3.31229   1
  -5  -1   3 29.2509 4.76712   4
  -5  -1   3 37.0206 3.55353   5
  -5  -1   3 32.0097 4.67835   2
  -5  -1   3 36.7799 3.72627   5
   4   1  -3 132.181 6.11707   4
   4   1  -3 142.973 6.08234   2
   4   1  -3 134.406 5.57346   5
   4   1  -3 144.459 5.70512   5
   4   1  -3 139.855 5.70403   1
  -4  -1   3 136.595 6.18467   2
  -4  -1   3 134.962 5.72560   5
  -4  -1   3 139.114 5.77217   5
  -4  -1   3 140.707 6.21169   4
  -4  -1   3 128.717 5.58320   1
   3   1  -3 65.4535 3.29341   1
   3   1  -3 62.7822 3.73315   4
   3   1  -3 69.1001 2.51423   3
   3   1  -3 68.9268 3.58231   2
   3   1  -3 69.9729 3.35597   5
   3   1  -3 66.9405 3.35674   5
  -3  -1   3 71.9109 3.77166   4
  -3  -1   3 65.8630 3.41119   5
  -3  -1   3 70.5736 3.58815   2
  -3  -1   3 64.6187 3.57277   5
  -3  -1   3 66.8087 3.24857   1
   2   1  -3 11.3593 1.77435   4
   2   1  -3 13.7841 1.38400   1
   2   1  -3 12.2080 1.53639   5
   2   1  -3 12.2260 1.58481   2
   2   1  -3 10.5169 1.09357   3
   2   1  -3 12.0214 1.55241   5
  -2  -1   3 11.6998 1.80387   4
  -2  -1   3 12.3650 1.31537   1
  -2  -1   3 10.2773 1.14952   3
  -2  -1   3 12.5715 1.65113   5
  -2  -1   3 13.4615 1.60038   2
   1   1  -3 1282.12 31.9174   1
   1   1  -3 1309.33 32.4887   5
   1   1  -3 1283.59 32.8495   4
   1   1  -3 1268.40 32.3853   5
   1   1  -3 1287.49 32.2699   3
  -1  -1   3 1281.17 32.2379   3
  -1  -1   3 1320.01 32.4253   2
  -1  -1   3 1297.62 32.5869   5
  -1  -1   3 1279.62 32.4324   5
  -1  -1   3 1322.61 31.9664   1
  -1  -1   3 1255.44 32.7638   4
   0   1  -3 1697.15 42.9787   4
   0   1  -3 1747.65 42.9959   5
   0   1  -3 1805.69 42.9230   2
   0   1  -3 1701.94 43.0259   3
   0   1  -3 1680.32 42.2976   1
   0   1  -3 1692.76 42.8281   5
   0  -1   3 1760.93 42.8636   5
   0  -1   3 1749.77 43.0072   5
   0  -1   3 1717.32 42.3154   1
   0  -1   3 1699.39 42.8521   2
   0  -1   3 1764.08 42.9977   4
   0  -1   3 1739.44 43.0159   3
  -1   1  -3 1064.71 27.0779   1
  -1   1  -3 1053.53 27.7194   3
  -1   1  -3 1090.37 27.5962   2
  -1   1  -3 1078.97 27.2184   4
   1  -1   3 1106.75 27.1949   4
   1  -1   3 1110.13 27.4528   5
   1  -1   3 1099.41 27.6315   2
   1  -1   3 1089.56 27.5930   5
   1  -1   3 1069.16 27.6939   3
  -2   1  -3 194.538 6.17252   5
  -2   1  -3 192.268 6.44481   2
  -2   1  -3 197.748 6.31578   5
  -2   1  -3 189.787 6.03052   1
  -2   1  -3 168.436 6.90327   3
   2  -1   3 193.681 6.26212   5
   2  -1   3 192.564 5.53422   4
   2  -1   3 184.418 5.98982   5
   2  -1   3 201.940 6.37621   3
   2  -1   3 190.379 6.61515   2
   2  -1   3 192.777 6.02738   1
  -3   1  -3 -0.4609 0.56278   5
  -3   1  -3 -0.7409 0.78518   2
  -3   1  -3 -0.2563 0.71442   3
  -3   1  -3 2.00180 0.86653   1
  -3   1  -3 0.06547 0.58946   5
   3  -1   3 0.47561 0.78717   1
   3  -1   3 0.21549 0.50649   4
   3  -1   3 0.78981 0.74708   5
   3  -1   3 0.86094 0.73322   5
   3  -1   3 0.45069 0.78826   3
   3  -1   3 -0.0870 0.50561   4
   3  -1   3 0.56233 0.84020   2
  -4   1  -3 -0.8452 1.08746   2
  -4   1  -3 0.27660 0.94071   1
  -4   1  -3 -0.0816 0.83271   5
  -4   1  -3 -0.1564 0.84212   5
  -4   1  -3 -0.0049 0.92362   3
   4  -1   3 0.31381 0.87297   5
   4  -1   3 0.38390 1.00483   3
   4  -1   3 0.16923 0.98962   5
   4  -1   3 -0.5597 1.01064   1
   4  -1   3 0.19644 0.63929   4
   4  -1   3 -0.3700 1.03892   2
  -5   1  -3 139.492 6.67337   5
  -5   1  -3 126.430 6.72611   2
  -5   1  -3 137.671 6.24125   1
  -5   1  -3 142.263 5.94427   3
  -5   1  -3 145.774 6.25850   5
   5  -1   3 140.717 6.20667   5
   5  -1   3 143.527 5.10646   4
   5  -1   3 142.839 5.93934   3
   5  -1   3 127.922 6.38594   1
   5  -1   3 141.471 6.90453   2
   5  -1   3 130.834 6.09149   5
  -6   1  -3 28.7330 3.32728   3
  -6   1  -3 26.9764 3.81699   1
  -6   1  -3 32.4353 4.22831   5
  -6   1  -3 29.2304 4.79178   5
   6  -1   3 26.8717 3.63700   5
   6  -1   3 22.6691 4.14388   2
   6  -1   3 33.4827 2.90286   4
   6  -1   3 32.3810 3.83582   3
  -7   1  -3 31.9795 3.66813   3
  -7   1  -3 34.2874 4.58492   1
  -7   1  -3 29.8871 4.51840   5
  -7   1  -3 33.2632 6.43102   5
   7  -1   3 35.5705 5.50597   2
   7  -1   3 31.1764 3.38962   4
   7  -1   3 33.6213 5.05884   5
   7  -1   3 22.8494 4.82277   3
  -8   1  -3 12.6832 3.19683   5
  -8   1  -3 15.1545 4.33150   3
  -8   1  -3 7.50076 2.50565   1
   8  -1   3 18.6933 5.94859   2
  -9   1  -3 -0.0154 3.22591   5
  -9   1  -3 -3.9658 3.72074   3
  -9   1  -3 2.31656 2.66216   1
   9  -1   3 -0.7391 3.66413   2
   9   0  -3 6.29678 4.33894   4
   9   0  -3 -2.3186 4.15823   2
  -9   0   3 -4.3714 3.09103   1
  -9   0   3 2.02468 3.42130   5
   8   0  -3 6.91937 3.03426   4
   8   0  -3 6.54902 3.18517   2
  -8   0   3 9.54828 3.01750   5
  -8   0   3 3.74110 2.54657   1
   7   0  -3 0.78304 1.96479   4
   7   0  -3 -2.1684 1.92102   2
   7   0  -3 0.01740 2.48548   5
  -7   0   3 0.32634 2.09868   5
  -7   0   3 -3.1725 1.59994   1
  -7   0   3 0.36578 2.34423   5
   6   0  -3 138.186 7.33110   2
   6   0  -3 122.076 6.81406   4
  -6   0   3 127.356 6.74489   1
  -6   0   3 135.668 6.92373   5
  -6   0   3 120.197 6.66300   5
   5   0  -3 2.99590 1.85514   1
   5   0  -3 8.17794 2.87002   2
   5   0  -3 4.80249 1.68701   4
  -5   0   3 5.68537 1.68268   5
  -5   0   3 2.95002 2.10670   4
  -5   0   3 3.92257 1.85499   5
  -5   0   3 7.09454 2.47502   1
   4   0  -3 408.322 12.8927   2
   4   0  -3 392.706 12.6414   4
   4   0  -3 415.518 12.2866   1
   4   0  -3 394.334 11.7802   5
  -4   0   3 396.419 12.2247   5
  -4   0   3 390.848 12.6332   2
  -4   0   3 420.798 12.3121   1
  -4   0   3 405.137 12.8732   4
  -4   0   3 399.893 12.2473   5
   3   0  -3 63.8537 3.10663   5
   3   0  -3 63.5430 3.61678   4
   3   0  -3 66.9898 3.71119   2
   3   0  -3 70.5751 3.25167   1
  -3   0   3 67.6306 3.39869   5
  -3   0   3 66.3092 3.31101   5
  -3   0   3 68.8283 3.86344   2
  -3   0   3 70.3106 3.36157   1
  -3   0   3 65.9606 3.77364   4
   2   0  -3 15.1354 1.41366   1
   2   0  -3 16.1162 1.02743   3
   2   0  -3 15.6804 1.39678   5
   2   0  -3 15.1529 2.20735   4
   2   0  -3 14.4375 1.92562   2
  -2   0   3 14.4969 1.02869   3
  -2   0   3 15.9830 1.72785   4
  -2   0   3 16.9323 1.77959   2
  -2   0   3 14.1028 1.71781   5
  -2   0   3 14.7895 1.44442   5
  -2   0   3 15.4463 1.36516   1
   1   0  -3 13.7824 1.13249   3
   1   0  -3 12.6325 1.45024   4
   1   0  -3 13.0705 0.94365   1
   1   0  -3 13.0428 1.16769   5
  -1   0   3 13.6643 1.08683   3
  -1   0   3 13.2991 1.20282   5
  -1   0   3 13.6210 1.28954   2
  -1   0   3 13.0449 0.90519   1
  -1   0   3 12.0925 1.20532   5
  -1   0   3 15.7804 1.44659   4
   0   0  -3 285.527 8.07737   5
   0   0  -3 278.648 8.28408   3
   0   0  -3 303.029 8.23367   5
   0   0  -3 295.637 8.50282   4
   0   0   3 304.544 8.32196   3
   0   0   3 301.241 8.49540   4
   0   0   3 300.924 8.28068   5
   0   0   3 302.648 8.18292   5
  -1   0  -3 38.6156 2.20435   3
  -1   0  -3 44.6296 2.12874   4
  -1   0  -3 46.3264 2.14341   5
  -1   0  -3 46.1137 1.75274   1
  -1   0  -3 44.4040 2.12596   5
  -1   0  -3 45.3340 2.35047   2
   1   0   3 45.7185 2.30392   2
   1   0   3 44.7932 2.08502   5
   1   0   3 46.1673 2.21207   5
   1   0   3 43.6538 2.24207   3
   1   0   3 44.9644 1.72838   1
   1   0   3 45.6446 2.11604   4
  -2   0  -3 103.890 4.10705   3
  -2   0  -3 110.704 3.95362   5
  -2   0  -3 110.224 4.06520   5
  -2   0  -3 108.725 4.25436   2
  -2   0  -3 106.843 3.79826   1
   2   0   3 111.157 4.19654   3
   2   0   3 107.492 4.08746   5
   2   0   3 106.509 4.30114   2
   2   0   3 109.642 3.76779   4
   2   0   3 109.648 3.80839   1
  -3   0  -3 88.3037 3.95108   3
  -3   0  -3 89.5281 3.80071   5
  -3   0  -3 83.9248 3.84948   1
   3   0   3 91.2269 4.29691   2
   3   0   3 91.4255 3.90249   5
   3   0   3 90.8248 3.50974   4
   3   0   3 89.7366 3.82239   1
   3   0   3 93.8162 3.94914   3
   3   0   3 93.4279 4.03579   5
  -4   0  -3 144.447 5.87064   1
  -4   0  -3 140.541 5.63237   3
  -4   0  -3 155.556 6.19970   5
  -4   0  -3 149.308 6.22560   2
   4   0   3 150.952 5.90909   1
   4   0   3 154.099 5.77972   5
   4   0   3 149.485 5.28654   4
   4   0   3 150.763 6.43518   2
   4   0   3 145.719 5.88585   5
   4   0   3 151.461 5.71953   3
  -5   0  -3 40.7832 3.24272   3
  -5   0  -3 32.9437 4.03802   2
  -5   0  -3 45.2751 3.48698   1
  -5   0  -3 42.2151 3.46488   5
   5   0   3 45.1995 2.99872   4
   5   0   3 50.2452 3.36005   3
   5   0   3 43.2849 3.80559   5
   5   0   3 45.1226 3.75607   1
   5   0   3 46.1436 3.94674   2
   5   0   3 44.3949 3.50982   5
  -6   0  -3 104.171 5.87480   1
  -6   0  -3 103.897 5.13227   3
  -6   0  -3 107.829 5.85025   5
   6   0   3 102.642 4.95773   4
   6   0   3 102.022 5.27201   3
   6   0   3 113.611 6.33379   5
   6   0   3 99.6320 6.34151   2
   6   0   3 106.023 5.62900   5
  -7   0  -3 46.7859 4.17359   3
  -7   0  -3 43.6819 4.58577   1
  -7   0  -3 42.7444 4.86563   5
   7   0   3 42.7962 4.78812   3
   7   0   3 50.5569 5.22399   5
   7   0   3 52.8314 5.75183   2
   7   0   3 54.9070 4.06298   4
  -8   0  -3 -0.2278 1.83421   1
  -8   0  -3 -1.4415 1.97780   3
  -8   0  -3 4.33129 2.91084   5
   8   0   3 5.95595 2.83353   5
   8   0   3 4.14620 1.88731   4
   8   0   3 -3.2263 2.34791   2
  -9   0  -3 18.7415 4.45017   5
  -9   0  -3 11.2743 3.30354   1
   9   0   3 18.2549 4.89743   4
   9   0   3 34.8837 7.89866   2
   9  -1  -3 2.71403 4.50126   2
  -9   1   3 4.51878 3.37057   5
  -9   1   3 4.89692 3.67450   1
   8  -1  -3 5.39331 3.66876   2
   8  -1  -3 0.94816 2.55546   4
  -8   1   3 5.16206 2.89863   1
  -8   1   3 2.70333 3.09090   5
   7  -1  -3 15.3045 4.80663   4
   7  -1  -3 8.71440 2.73229   2
   7  -1  -3 16.2953 4.49809   5
  -7   1   3 11.1650 4.06464   5
  -7   1   3 10.2366 2.41170   5
  -7   1   3 22.0359 4.41686   1
   6  -1  -3 44.4890 4.30535   4
   6  -1  -3 47.5254 4.33407   5
   6  -1  -3 46.7039 4.93642   2
  -6   1   3 45.2098 4.64102   5
  -6   1   3 42.1282 4.34493   5
  -6   1   3 45.7178 4.34524   1
   5  -1  -3 3.39664 1.30589   5
   5  -1  -3 2.21648 1.48004   2
   5  -1  -3 2.45571 1.47294   4
   5  -1  -3 1.78499 1.82845   1
  -5   1   3 3.75187 1.41970   1
  -5   1   3 3.22023 1.31001   5
  -5   1   3 2.46985 2.04964   4
  -5   1   3 3.21041 1.19425   5
   4  -1  -3 1.70832 0.75601   5
   4  -1  -3 2.49373 1.16066   4
   4  -1  -3 1.02416 1.26204   2
   4  -1  -3 1.75841 0.91844   5
   4  -1  -3 2.00964 1.18984   1
  -4   1   3 2.02716 0.88912   1
  -4   1   3 2.15170 1.26131   4
  -4   1   3 1.79117 0.90849   5
  -4   1   3 1.54996 0.95667   5
  -4   1   3 2.46147 1.44577   2
   3  -1  -3 122.027 5.13505   4
   3  -1  -3 127.333 4.35655   5
   3  -1  -3 119.542 4.64707   1
   3  -1  -3 122.529 5.35767   2
  -3   1   3 118.262 4.65693   1
  -3   1   3 116.178 4.56093   5
  -3   1   3 123.993 5.06440   4
  -3   1   3 116.730 4.58578   5
  -3   1   3 122.959 5.34857   2
   2  -1  -3 123.642 4.10401   1
   2  -1  -3 117.173 4.79452   2
   2  -1  -3 117.322 3.87232   5
   2  -1  -3 113.555 3.83427   5
  -2   1   3 113.828 4.09130   5
  -2   1   3 122.248 4.70964   2
  -2   1   3 116.088 4.05897   1
  -2   1   3 115.041 4.58112   4
  -2   1   3 116.874 4.03026   5
   1  -1  -3 619.068 16.0800   3
   1  -1  -3 620.576 15.9751   5
   1  -1  -3 627.042 15.8896   1
   1  -1  -3 626.932 16.9695   4
   1  -1  -3 627.749 16.0147   5
  -1   1   3 623.092 16.2259   5
  -1   1   3 638.568 16.9385   2
  -1   1   3 637.451 16.1768   5
  -1   1   3 639.484 16.0914   3
  -1   1   3 639.981 16.9213   4
  -1   1   3 657.506 15.9460   1
   0  -1  -3 47.5852 2.15658   3
   0  -1  -3 49.8428 1.87752   5
   0  -1  -3 47.8706 1.85793   5
   0  -1  -3 47.3405 2.39710   4
   0   1   3 49.6658 1.94732   5
   0   1   3 49.2910 1.99491   5
   0   1   3 48.6904 2.35248   4
   0   1   3 46.6635 2.37514   2
   0   1   3 49.9585 2.18261   3
  -1  -1  -3 1097.19 26.3246   1
  -1  -1  -3 1052.35 27.1876   4
  -1  -1  -3 1088.09 26.7615   5
  -1  -1  -3 1049.37 27.1544   3
  -1  -1  -3 1047.83 27.2304   2
   1   1   3 1081.18 27.1933   3
   1   1   3 1050.55 27.1361   4
   1   1   3 1074.36 26.8581   5
   1   1   3 1063.28 26.2907   1
   1   1   3 1063.21 26.7138   5
   1   1   3 1091.67 27.3083   2
  -2  -1  -3 231.080 7.19202   3
  -2  -1  -3 227.293 7.28788   2
  -2  -1  -3 226.329 6.84125   5
  -2  -1  -3 212.790 6.83652   5
  -2  -1  -3 233.932 6.73754   1
   2   1   3 232.645 7.30594   2
   2   1   3 236.309 7.20378   3
   2   1   3 229.484 6.83906   5
   2   1   3 236.852 7.06321   4
   2   1   3 233.848 6.72332   1
  -3  -1  -3 102.245 4.40076   3
  -3  -1  -3 106.160 4.24633   5
  -3  -1  -3 110.713 4.76031   2
  -3  -1  -3 106.662 4.33584   5
   3   1   3 107.214 4.39850   5
   3   1   3 108.938 4.65305   2
   3   1   3 107.435 4.23675   1
   3   1   3 115.093 4.47158   3
   3   1   3 111.771 4.27486   5
   3   1   3 107.696 4.28615   4
  -4  -1  -3 135.611 5.53689   1
  -4  -1  -3 139.171 5.50528   3
  -4  -1  -3 138.840 5.61167   5
  -4  -1  -3 144.683 5.97174   2
   4   1   3 140.950 5.62753   5
   4   1   3 137.745 5.57601   5
   4   1   3 142.211 5.59015   1
   4   1   3 142.234 5.60967   3
   4   1   3 141.799 6.14460   2
   4   1   3 135.576 5.35933   4
  -5  -1  -3 21.9642 3.32067   5
  -5  -1  -3 18.8661 2.44577   3
  -5  -1  -3 20.0262 2.79139   1
  -5  -1  -3 17.6068 3.07768   2
  -5  -1  -3 19.0496 2.72630   5
   5   1   3 21.7017 3.27780   2
   5   1   3 17.7281 2.35765   4
   5   1   3 20.7704 2.84950   5
   5   1   3 25.8844 2.77406   3
   5   1   3 23.6536 3.04091   5
   5   1   3 23.7155 2.91478   1
  -6  -1  -3 3.46362 1.34782   1
  -6  -1  -3 3.43224 1.93399   5
  -6  -1  -3 2.55971 1.52316   5
  -6  -1  -3 8.34825 2.58627   3
   6   1   3 4.04611 2.09533   2
   6   1   3 5.53591 2.04133   5
   6   1   3 4.49046 1.64488   3
   6   1   3 2.82365 1.32230   4
  -7  -1  -3 -2.5120 1.56602   3
  -7  -1  -3 1.49714 2.11731   5
  -7  -1  -3 8.20294 3.15749   5
  -7  -1  -3 0.67975 1.81810   1
   7   1   3 2.52944 1.98360   3
   7   1   3 -3.9778 1.98965   2
   7   1   3 0.48129 2.07325   5
   7   1   3 -0.7730 1.54444   4
  -8  -1  -3 1.95179 2.29854   1
  -8  -1  -3 3.23471 2.30062   3
  -8  -1  -3 6.47208 2.87931   5
   8   1   3 1.18523 2.48569   5
   8   1   3 2.54789 2.88787   2
  -9  -1  -3 -3.4999 3.00004   3
  -9  -1  -3 4.44540 2.97303   1
  -9  -1  -3 4.23658 3.66090   5
   9   1   3 -3.5597 3.07942   2
   9   1   3 1.58225 2.77443   4
 -10  -1  -3 -3.1152 3.61290   1
  10   1   3 0.87350 4.37087   2
   9  -2  -3 9.66762 5.30438   2
   9  -2  -3 5.10161 4.29308   4
  -9   2   3 -0.0591 4.08084   5
  -9   2   3 3.43517 3.73740   1
   8  -2  -3 9.91584 3.71485   2
   8  -2  -3 5.50850 2.97137   4
  -8   2   3 5.65321 2.59390   1
  -8   2   3 4.35750 2.83368   5
   7  -2  -3 36.4657 6.10871   2
   7  -2  -3 31.8008 4.84042   4
  -7   2   3 21.2803 4.44793   1
  -7   2   3 29.5148 4.50651   5
   6  -2  -3 10.0886 3.34697   4
   6  -2  -3 8.37585 2.34735   2
   6  -2  -3 5.77301 2.02752   5
  -6   2   3 14.3201 4.73787   4
  -6   2   3 11.7311 3.22966   1
  -6   2   3 16.0899 3.46913   5
  -6   2   3 11.7179 3.86575   5
   5  -2  -3 3.89498 1.46791   4
   5  -2  -3 5.14700 1.97789   1
   5  -2  -3 2.09689 1.38726   2
   5  -2  -3 2.89545 1.27108   5
  -5   2   3 2.48117 1.21864   1
  -5   2   3 3.77095 2.10901   4
  -5   2   3 2.51664 1.13029   5
  -5   2   3 3.93447 1.55155   5
   4  -2  -3 201.881 7.55329   4
   4  -2  -3 205.387 6.53724   5
   4  -2  -3 208.278 7.57556   1
   4  -2  -3 202.068 8.28285   2
   4  -2  -3 205.153 6.45872   5
  -4   2   3 194.524 8.13868   2
  -4   2   3 209.613 7.65885   4
  -4   2   3 211.855 7.57646   1
  -4   2   3 208.124 7.22166   5
  -4   2   3 201.155 7.18822   5
   3  -2  -3 81.5907 4.40917   2
   3  -2  -3 78.4404 3.96048   4
   3  -2  -3 86.1106 3.06285   5
   3  -2  -3 81.5835 3.09494   5
   3  -2  -3 81.8965 3.88260   1
  -3   2   3 82.7067 4.15738   4
  -3   2   3 81.9055 3.52411   5
  -3   2   3 84.2500 4.53563   2
  -3   2   3 82.6042 3.84373   1
  -3   2   3 83.0353 3.57825   5
   2  -2  -3 227.363 6.09381   5
   2  -2  -3 228.589 6.89609   1
   2  -2  -3 225.654 7.71067   2
   2  -2  -3 236.614 6.12671   5
  -2   2   3 219.776 6.56026   5
  -2   2   3 225.064 7.39255   4
  -2   2   3 226.490 6.15256   3
  -2   2   3 227.797 6.91477   1
  -2   2   3 218.756 6.59193   5
   1  -2  -3 48.3372 2.09022   3
  -1   2   3 50.3165 1.88517   5
  -1   2   3 49.0825 2.60457   4
  -1   2   3 50.6871 2.15295   3
  -1   2   3 50.0261 2.08048   1
  -1   2   3 48.5092 1.90404   5
   0  -2  -3 3799.53 93.3822   4
   0  -2  -3 3901.49 93.0036   3
   0   2   3 3906.64 93.7515   1
   0   2   3 3889.73 94.4730   5
   0   2   3 3290.60 93.1280   4
   0   2   3 4057.85 93.0284   3
   0   2   3 3873.08 92.4617   5
   0   2   3 3771.36 95.8018   2
  -1  -2  -3 1113.90 28.0032   5
  -1  -2  -3 1139.30 27.9766   5
  -1  -2  -3 1099.66 28.8062   3
  -1  -2  -3 1149.79 28.0404   1
  -1  -2  -3 1150.82 28.8581   2
   1   2   3 1165.69 28.0449   1
   1   2   3 1069.23 28.8313   4
   1   2   3 1147.72 28.2147   5
   1   2   3 1148.45 28.1303   5
   1   2   3 1133.68 28.8841   2
  -2  -2  -3 376.743 10.3811   5
  -2  -2  -3 382.922 10.4327   1
  -2  -2  -3 359.977 10.9024   3
  -2  -2  -3 384.317 10.9255   2
   2   2   3 365.101 10.4936   5
   2   2   3 389.271 10.9958   2
   2   2   3 379.053 10.8838   3
   2   2   3 373.096 10.4063   5
   2   2   3 397.991 10.4418   1
   2   2   3 371.897 10.9097   4
  -3  -2  -3 62.7657 3.73873   1
  -3  -2  -3 72.7124 3.53830   2
  -3  -2  -3 69.3402 3.17346   5
  -3  -2  -3 69.9866 3.33168   5
  -3  -2  -3 67.1226 3.41111   3
   3   2   3 63.7886 3.58348   4
   3   2   3 65.0906 3.19392   1
   3   2   3 66.6143 3.38384   3
   3   2   3 65.5421 3.20732   5
   3   2   3 66.1097 3.50347   2
  -4  -2  -3 304.574 9.72429   3
  -4  -2  -3 317.686 10.1566   2
  -4  -2  -3 311.681 9.62044   5
  -4  -2  -3 300.778 9.72680   1
   4   2   3 304.686 9.80233   5
   4   2   3 308.172 10.1509   2
   4   2   3 307.055 9.76765   1
   4   2   3 316.116 9.73570   3
   4   2   3 306.456 9.83110   4
   4   2   3 257.860 9.31779   5
  -5  -2  -3 281.760 9.68822   5
  -5  -2  -3 271.100 9.20825   3
  -5  -2  -3 273.104 9.90095   2
  -5  -2  -3 261.066 9.45112   1
  -5  -2  -3 256.391 9.35340   4
  -5  -2  -3 283.425 9.42505   5
   5   2   3 277.277 9.97854   2
   5   2   3 281.808 9.40184   3
   5   2   3 257.965 9.39160   1
   5   2   3 260.760 9.27865   4
   5   2   3 262.193 9.47365   5
   5   2   3 287.080 9.44285   5
  -6  -2  -3 -3.7292 1.84740   4
  -6  -2  -3 -1.3811 1.06270   1
  -6  -2  -3 -0.0823 2.21169   5
  -6  -2  -3 1.01939 1.45066   3
  -6  -2  -3 -0.8751 1.39761   5
   6   2   3 0.81984 1.95768   5
   6   2   3 -1.0668 1.74585   3
   6   2   3 -0.0779 1.56202   2
   6   2   3 1.01327 1.66895   5
   6   2   3 -0.3310 1.28371   4
  -7  -2  -3 2.26296 1.82039   1
  -7  -2  -3 -0.7329 1.93441   5
  -7  -2  -3 2.25469 1.84345   3
  -7  -2  -3 3.59544 3.33131   5
   7   2   3 1.14695 2.28522   3
   7   2   3 -0.7146 2.10258   2
   7   2   3 -1.1670 1.46608   4
   7   2   3 0.28412 1.98066   5
  -8  -2  -3 9.23295 2.69150   1
  -8  -2  -3 12.8361 3.57052   5
  -8  -2  -3 13.2351 4.19595   3
   8   2   3 9.56805 3.20384   2
   8   2   3 13.9552 4.44495   4
   8   2   3 6.18147 2.90764   5
  -9  -2  -3 -0.9353 2.66895   3
  -9  -2  -3 -0.6966 2.54582   1
  -9  -2  -3 22.3453 7.37242   5
   9   2   3 -3.5708 2.49807   4
   9   2   3 1.98370 3.41001   2
 -10  -2  -3 10.9388 4.05089   1
  10   2   3 4.94500 3.69239   4
  10   2   3 3.99301 4.35740   2
   8  -3  -3 6.26902 3.37530   2
   8  -3  -3 7.50391 3.29869   4
  -8   3   3 0.34053 2.56640   5
  -8   3   3 2.97446 2.75467   1
   7  -3  -3 47.9618 6.78749   2
   7  -3  -3 37.8368 5.02269   4
  -7   3   3 37.4531 5.25884   1
  -7   3   3 36.4951 4.95706   5
   6  -3  -3 6.63038 2.02318   4
   6  -3  -3 8.02086 2.54112   2
   6  -3  -3 16.7927 3.32476   5
  -6   3   3 8.76054 2.16705   5
  -6   3   3 5.54040 3.05436   4
  -6   3   3 5.35451 2.18787   5
  -6   3   3 6.94607 2.27494   1
   5  -3  -3 -0.6300 1.23594   4
   5  -3  -3 3.78162 1.91940   2
   5  -3  -3 -1.4352 1.15945   5
  -5   3   3 -0.1468 1.14958   1
  -5   3   3 -0.2605 1.15325   5
  -5   3   3 -0.0923 1.78508   4
  -5   3   3 -0.4306 1.11743   5
   4  -3  -3 89.3217 4.55528   4
   4  -3  -3 84.5483 3.28735   5
   4  -3  -3 80.8669 3.24208   5
   4  -3  -3 88.5894 5.03135   1
   4  -3  -3 83.7385 5.22842   2
  -4   3   3 84.5977 4.10247   5
  -4   3   3 88.8814 5.30566   2
  -4   3   3 93.1864 4.68000   1
  -4   3   3 86.6793 4.62827   4
  -4   3   3 88.9060 4.16597   5
   3  -3  -3 21.4345 2.32497   4
   3  -3  -3 21.2556 2.62662   2
  -3   3   3 21.8125 1.89521   5
  -3   3   3 26.1945 2.84619   2
  -3   3   3 22.9185 2.26033   1
  -3   3   3 19.5788 2.53891   4
  -3   3   3 22.2803 1.39450   3
  -3   3   3 24.1806 1.93641   5
  -3   3   3 21.5269 1.34262   3
   2  -3  -3 58.3521 3.53256   2
   2  -3  -3 56.9111 3.60818   4
  -2   3   3 61.8959 2.45259   5
  -2   3   3 59.7385 2.47989   3
  -2   3   3 60.2076 3.22687   4
  -2   3   3 63.6972 3.46203   2
  -2   3   3 58.0358 2.33839   5
   1  -3  -3 238.268 8.32777   2
   1  -3  -3 237.284 7.18174   3
   1  -3  -3 239.295 7.70245   4
  -1   3   3 242.681 7.66326   4
  -1   3   3 245.443 7.18646   3
  -1   3   3 255.173 7.25177   1
  -1   3   3 251.443 7.87060   2
  -1   3   3 241.618 6.31416   5
  -1   3   3 237.902 7.16591   1
   0  -3  -3 186.098 6.20091   4
   0  -3  -3 186.202 5.47270   1
   0  -3  -3 178.220 5.85026   3
   0   3   3 186.243 6.15578   4
   0   3   3 184.710 5.43125   1
   0   3   3 177.611 4.70734   5
   0   3   3 184.436 5.99615   2
   0   3   3 158.358 5.68237   3
  -1  -3  -3 11.1148 0.75672   5
  -1  -3  -3 9.57984 1.43086   3
  -1  -3  -3 10.6027 0.70330   5
  -1  -3  -3 9.10469 1.33232   2
  -1  -3  -3 9.55812 1.09686   1
   1   3   3 9.16129 1.04808   1
   1   3   3 9.30052 0.94388   5
   1   3   3 9.23113 0.92972   5
   1   3   3 10.1911 1.30805   2
   1   3   3 9.75191 1.41650   4
   1   3   3 10.1155 1.42756   3
  -2  -3  -3 44.9515 2.32881   1
  -2  -3  -3 42.6538 2.11338   5
  -2  -3  -3 47.1762 2.15286   5
  -2  -3  -3 44.7923 2.74943   3
  -2  -3  -3 45.4746 2.62804   2
   2   3   3 44.2514 2.36855   1
   2   3   3 43.5790 2.21166   5
   2   3   3 45.5315 2.58296   2
   2   3   3 47.2180 2.67714   3
   2   3   3 45.0130 2.90775   4
   2   3   3 43.5877 2.35282   5
  -3  -3  -3 90.9574 3.96108   1
  -3  -3  -3 90.8661 4.27441   3
  -3  -3  -3 95.2071 4.01116   5
  -3  -3  -3 94.0067 4.17875   2
  -3  -3  -3 92.6334 3.86055   5
   3   3   3 87.8067 3.78645   5
   3   3   3 95.9533 4.31534   3
   3   3   3 91.7913 3.99722   1
   3   3   3 92.9642 4.16384   2
   3   3   3 86.2148 4.24161   4
   3   3   3 86.9385 3.94965   5
  -4  -3  -3 16.7519 2.34331   5
  -4  -3  -3 23.9548 2.51257   5
  -4  -3  -3 12.6646 2.85663   2
  -4  -3  -3 16.5240 2.04716   1
  -4  -3  -3 16.8795 2.34296   3
   4   3   3 18.0891 2.19799   5
   4   3   3 18.8802 2.40565   2
   4   3   3 20.8095 2.50082   4
   4   3   3 18.1814 2.46778   5
   4   3   3 19.2981 2.65312   3
   4   3   3 22.8069 2.50908   1
  -5  -3  -3 9.96688 2.38816   1
  -5  -3  -3 9.85082 2.55092   3
  -5  -3  -3 6.09623 1.87953   5
  -5  -3  -3 13.3069 3.73321   2
  -5  -3  -3 7.49487 2.09268   4
  -5  -3  -3 11.4370 2.52089   5
   5   3   3 12.6480 2.65303   3
   5   3   3 10.4829 2.87495   5
   5   3   3 8.67042 2.75154   1
   5   3   3 11.0903 2.94776   2
   5   3   3 7.11690 1.96698   5
   5   3   3 10.4545 2.73990   4
  -6  -3  -3 27.4348 3.74312   5
  -6  -3  -3 23.3576 3.27188   1
  -6  -3  -3 30.6636 3.46335   3
  -6  -3  -3 18.9674 4.67322   4
  -6  -3  -3 23.6294 4.84869   5
   6   3   3 19.3030 4.26111   5
   6   3   3 24.5639 3.53216   4
   6   3   3 23.4768 3.64912   5
   6   3   3 25.6246 3.85228   3
   6   3   3 30.8419 4.06849   2
  -7  -3  -3 54.7530 4.92197   1
  -7  -3  -3 48.2783 5.04005   5
  -7  -3  -3 63.3616 4.85940   3
   7   3   3 63.3853 6.83114   5
   7   3   3 61.3568 5.62025   3
   7   3   3 50.1014 4.79279   4
   7   3   3 57.7934 5.70826   5
   7   3   3 57.6063 6.01264   2
  -8  -3  -3 24.2000 5.46982   5
  -8  -3  -3 14.3060 4.53734   3
  -8  -3  -3 25.9398 4.83257   1
   8   3   3 17.1797 5.76383   2
   8   3   3 24.8670 6.29703   5
   8   3   3 13.6252 3.12141   4
  -9  -3  -3 0.57455 2.64845   1
  -9  -3  -3 6.00443 3.33258   3
  -9  -3  -3 5.89925 3.36062   5
   9   3   3 -3.2984 3.60443   5
   9   3   3 3.70654 3.34659   2
   9   3   3 0.56558 2.76922   4
 -10  -3  -3 1.15011 3.83253   1
  10   3   3 -1.9575 3.72277   4
  10   3   3 -3.1662 4.54934   2
   8  -4  -3 2.34719 2.91248   4
   8  -4  -3 2.33538 3.95228   2
  -8   4   3 5.58488 3.14771   1
  -8   4   3 7.00356 2.91837   5
   7  -4  -3 5.56881 2.88044   2
   7  -4  -3 4.43415 2.32976   4
  -7   4   3 7.67538 2.43265   5
  -7   4   3 1.34631 2.25765   1
   6  -4  -3 4.24886 2.45235   2
   6  -4  -3 5.28604 1.86454   4
  -6   4   3 6.88791 2.25001   5
  -6   4   3 3.29458 1.66213   1
  -6   4   3 0.71953 1.66963   5
  -6   4   3 2.70861 2.84959   4
   5  -4  -3 148.326 6.59615   4
   5  -4  -3 147.462 7.86730   2
  -5   4   3 148.441 6.92304   4
  -5   4   3 151.846 7.33135   1
  -5   4   3 148.102 6.57435   5
  -5   4   3 148.451 6.34247   5
   4  -4  -3 172.710 7.84109   2
   4  -4  -3 165.830 6.62929   4
  -4   4   3 161.789 6.14674   5
  -4   4   3 170.050 6.73471   4
  -4   4   3 171.083 6.18416   5
  -4   4   3 161.607 6.87240   1
   3  -4  -3 147.471 5.95339   4
   3  -4  -3 150.640 6.70172   2
  -3   4   3 150.464 6.66647   2
  -3   4   3 154.023 5.01389   3
  -3   4   3 153.487 5.13633   5
  -3   4   3 144.702 4.91776   3
  -3   4   3 148.602 5.11058   5
  -3   4   3 153.135 6.10697   1
  -3   4   3 149.150 5.96012   4
   2  -4  -3 14.7403 2.23509   2
   2  -4  -3 15.3518 2.09247   4
  -2   4   3 13.7159 1.78364   3
  -2   4   3 17.1780 1.23389   5
  -2   4   3 15.0744 2.41515   2
  -2   4   3 15.1085 1.90759   1
  -2   4   3 15.2629 2.10922   4
  -2   4   3 17.2493 1.28289   5
   1  -4  -3 592.304 17.5180   4
  -1   4   3 641.814 17.3536   4
  -1   4   3 657.903 17.0169   1
  -1   4   3 638.927 16.9834   3
  -1   4   3 622.940 17.4499   2
   0  -4  -3 2421.04 59.4227   1
   0   4   3 2447.63 59.4024   1
   0   4   3 2397.69 59.9793   4
   0   4   3 2349.75 59.7121   3
   0   4   3 2391.86 59.7270   2
  -1  -4  -3 5113.08 130.462   1
  -1  -4  -3 5238.97 131.141   3
   1   4   3 5560.68 131.359   4
   1   4   3 5687.22 131.253   3
   1   4   3 5303.57 131.896   2
   1   4   3 5317.49 129.639   5
   1   4   3 5301.63 132.849   1
  -2  -4  -3 0.32162 0.95919   3
  -2  -4  -3 -1.0155 0.46919   5
  -2  -4  -3 0.23210 0.68154   2
  -2  -4  -3 0.48087 0.51644   5
   2   4   3 0.32913 0.55734   5
   2   4   3 -0.1544 0.66346   1
   2   4   3 0.94036 0.87374   4
   2   4   3 -0.9263 0.54050   5
   2   4   3 -0.5430 0.89935   3
   2   4   3 0.02845 0.65961   2
  -3  -4  -3 55.4063 3.07556   1
  -3  -4  -3 60.0657 3.35695   2
  -3  -4  -3 55.2522 2.83035   5
  -3  -4  -3 52.2810 3.35171   3
  -3  -4  -3 55.0122 2.92781   5
   3   4   3 52.2312 2.95075   5
   3   4   3 55.7374 3.23021   1
   3   4   3 57.3643 3.36855   3
   3   4   3 54.9631 3.68326   4
   3   4   3 56.8858 3.23263   2
   3   4   3 51.8439 3.00028   5
  -4  -4  -3 237.572 7.82353   5
  -4  -4  -3 233.618 7.88527   5
  -4  -4  -3 242.768 8.37508   1
  -4  -4  -3 238.018 8.38271   2
  -4  -4  -3 221.881 8.32009   3
   4   4   3 234.074 7.98320   5
   4   4   3 228.983 8.70824   4
   4   4   3 237.447 8.42844   3
   4   4   3 236.116 8.37286   1
   4   4   3 233.653 8.20348   5
   4   4   3 232.113 8.29943   2
  -5  -4  -3 57.5157 4.47163   5
  -5  -4  -3 59.1360 4.17107   3
  -5  -4  -3 58.7362 4.04992   1
  -5  -4  -3 59.2658 3.89895   5
  -5  -4  -3 42.6909 4.74764   4
  -5  -4  -3 59.5787 4.81280   2
   5   4   3 55.6882 4.18845   5
   5   4   3 57.3081 4.56387   4
   5   4   3 58.2710 4.11083   5
   5   4   3 53.2833 4.28967   3
   5   4   3 58.1058 4.30091   2
   5   4   3 60.2034 4.43159   1
  -6  -4  -3 45.4869 3.91963   5
  -6  -4  -3 40.4742 3.97842   1
  -6  -4  -3 41.6435 4.03851   3
   6   4   3 37.3623 4.59692   3
   6   4   3 44.0526 4.62740   2
   6   4   3 51.7338 4.88375   5
   6   4   3 43.2165 4.49261   4
  -7  -4  -3 5.46457 1.96180   1
  -7  -4  -3 5.20617 2.14807   3
  -7  -4  -3 9.64025 3.18552   5
   7   4   3 19.2314 5.35902   5
   7   4   3 8.30109 2.48090   4
   7   4   3 7.07494 2.50322   2
   7   4   3 4.22502 2.14361   5
  -8  -4  -3 27.1304 4.94287   3
  -8  -4  -3 18.1570 5.68326   5
  -8  -4  -3 19.5692 4.42553   1
   8   4   3 32.2019 5.99741   2
   8   4   3 31.3419 5.92558   4
   8   4   3 18.3799 3.83693   5
  -9  -4  -3 73.1145 7.48075   3
  -9  -4  -3 74.1984 7.58826   1
  -9  -4  -3 68.8909 11.0513   5
   9   4   3 54.4401 9.07773   5
   9   4   3 80.8513 8.18136   4
   9   4   3 81.1475 8.64249   2
   8  -5  -3 29.2955 8.87663   2
  -8   5   3 -0.7555 2.95701   5
  -8   5   3 5.63731 3.23313   1
   7  -5  -3 0.53378 3.10527   2
   7  -5  -3 3.44776 2.28309   4
  -7   5   3 1.14807 2.08591   5
  -7   5   3 5.72324 2.96126   1
   6  -5  -3 2.27034 2.45085   2
   6  -5  -3 6.04479 1.94555   4
  -6   5   3 5.98341 1.83487   5
  -6   5   3 3.77350 2.05389   1
  -6   5   3 7.01303 2.45476   5
   5  -5  -3 58.9430 4.31049   4
   5  -5  -3 52.8921 5.56511   2
  -5   5   3 54.1089 3.91554   5
  -5   5   3 41.8105 4.97581   4
  -5   5   3 51.2338 4.11578   5
  -5   5   3 50.4962 4.49493   1
   4  -5  -3 334.329 10.9380   4
   4  -5  -3 336.003 12.3381   2
  -4   5   3 325.912 10.9980   4
  -4   5   3 333.641 9.73773   3
  -4   5   3 354.303 11.8667   1
  -4   5   3 331.523 9.80584   3
  -4   5   3 330.770 10.3953   5
  -4   5   3 349.239 10.3382   5
   3  -5  -3 -0.6669 1.18422   2
   3  -5  -3 1.45204 1.13205   4
  -3   5   3 1.67328 0.91342   5
  -3   5   3 1.27473 1.80549   2
  -3   5   3 1.83713 1.14271   1
  -3   5   3 1.96059 1.33661   3
  -3   5   3 0.03212 1.31048   4
  -3   5   3 1.70052 0.77804   5
   2  -5  -3 92.5962 4.82494   2
   2  -5  -3 90.0342 4.42980   4
  -2   5   3 86.7018 4.28328   4
  -2   5   3 87.5681 4.06514   3
  -2   5   3 90.5334 4.78674   2
  -2   5   3 101.672 4.66547   1
  -2   5   3 88.5724 3.94257   3
  -2   5   3 92.5185 4.44711   1
  -2   5   3 89.0696 2.95895   5
  -1   5   3 420.233 12.5416   3
  -1   5   3 432.909 12.6421   1
  -1   5   3 440.861 12.8277   4
  -1   5   3 434.375 12.8980   2
   0  -5  -3 371.500 10.8697   1
   0   5   3 359.040 10.8064   2
   0   5   3 357.973 10.7647   1
   0   5   3 358.333 11.0084   3
   0   5   3 376.953 11.2155   4
  -1  -5  -3 -0.7220 0.81963   3
  -1  -5  -3 0.39344 0.60863   1
   1   5   3 0.74592 0.52465   5
   1   5   3 0.53551 0.46726   5
   1   5   3 0.71557 0.67038   2
   1   5   3 1.01908 0.79347   4
   1   5   3 0.07745 0.66502   1
   1   5   3 1.69498 1.00263   3
   1   5   3 0.39378 0.87474   4
  -2  -5  -3 22.8989 2.38437   3
  -2  -5  -3 19.8477 1.30271   5
  -2  -5  -3 22.1230 2.13605   1
  -2  -5  -3 23.4441 2.19767   2
  -2  -5  -3 20.7942 1.39850   5
   2   5   3 26.9459 2.66117   3
   2   5   3 21.8000 1.85433   5
   2   5   3 22.3098 2.73726   4
   2   5   3 20.7053 1.79598   5
   2   5   3 25.0573 2.12542   1
  -3  -5  -3 7.87182 1.59871   5
  -3  -5  -3 5.39091 1.35457   2
  -3  -5  -3 7.53886 1.57222   5
  -3  -5  -3 5.25501 1.66678   1
  -3  -5  -3 6.54857 2.14129   3
   3   5   3 5.21826 1.32661   1
   3   5   3 5.30372 1.60869   3
   3   5   3 6.17063 1.67530   2
   3   5   3 8.64745 2.14551   4
   3   5   3 3.58803 1.02480   5
   3   5   3 6.79629 1.72187   5
  -4  -5  -3 39.9318 2.98118   5
  -4  -5  -3 36.6173 3.04272   1
  -4  -5  -3 36.8184 3.01313   5
  -4  -5  -3 31.6173 3.39497   2
  -4  -5  -3 35.9866 3.35689   3
   4   5   3 32.8745 3.02313   5
   4   5   3 35.0134 3.01726   5
   4   5   3 37.2004 3.74876   4
   4   5   3 39.5017 3.65549   3
   4   5   3 37.3660 3.42230   1
   4   5   3 35.2692 3.07972   2
  -5  -5  -3 20.3619 3.20752   3
  -5  -5  -3 24.9233 3.07355   1
  -5  -5  -3 23.9347 3.08136   5
  -5  -5  -3 17.1626 4.02446   2
   5   5   3 16.4218 3.10287   2
   5   5   3 16.7203 3.42183   5
   5   5   3 24.3823 3.49287   5
   5   5   3 17.9264 3.52852   4
   5   5   3 21.9988 3.79706   3
  -6  -5  -3 30.6226 3.91893   5
  -6  -5  -3 24.1546 3.73885   1
  -6  -5  -3 32.4890 3.92772   3
   6   5   3 22.6854 3.98727   4
   6   5   3 31.2829 4.47959   5
   6   5   3 32.3778 4.34244   5
   6   5   3 27.8974 4.07429   2
  -7  -5  -3 1.78322 2.44368   3
  -7  -5  -3 1.08352 2.07666   5
  -7  -5  -3 1.55834 1.86200   1
   7   5   3 -0.4371 1.69638   5
   7   5   3 -2.1297 2.01024   2
   7   5   3 4.53850 2.49022   5
   7   5   3 1.54071 1.93088   4
  -8  -5  -3 10.1362 3.85298   5
  -8  -5  -3 23.9716 5.65792   3
  -8  -5  -3 20.9861 5.15132   1
   8   5   3 8.97016 3.03005   2
   8   5   3 11.1970 3.13715   4
   8   5   3 21.4239 6.75509   5
  -9  -5  -3 3.52772 3.25471   1
   9   5   3 4.07072 3.85614   2
   9   5   3 3.81148 3.48120   4
   9   5   3 -5.1415 3.80830   5
  -7   6   3 39.3928 6.54037   1
  -7   6   3 46.3281 6.19192   5
   6  -6  -3 7.33280 3.19217   2
   6  -6  -3 1.03770 2.12052   4
  -6   6   3 4.70767 2.44867   1
  -6   6   3 6.70301 2.20031   5
  -6   6   3 3.63841 2.42980   5
   5  -6  -3 4.81389 1.96745   4
   5  -6  -3 6.51441 2.64749   2
  -5   6   3 4.41371 2.01789   3
  -5   6   3 4.04679 1.81766   5
  -5   6   3 5.09444 2.03871   1
  -5   6   3 2.19439 2.52370   4
  -5   6   3 5.00886 1.92667   3
  -5   6   3 1.29219 1.39157   5
   4  -6  -3 0.42975 1.76442   2
   4  -6  -3 3.78176 1.49558   4
  -4   6   3 4.48565 1.90007   1
  -4   6   3 1.26369 1.20739   3
  -4   6   3 1.95168 1.59619   4
  -4   6   3 2.31192 1.05093   5
  -4   6   3 -1.4291 1.77821   3
   3  -6  -3 28.8798 3.82472   2
  -3   6   3 26.6270 3.68314   1
  -3   6   3 26.2256 2.04723   5
  -3   6   3 29.9539 2.74388   3
  -3   6   3 23.2074 2.15572   5
  -3   6   3 23.5684 3.40028   4
  -3   6   3 23.0858 3.13384   3
  -3   6   3 23.6507 3.16560   1
   2  -6  -3 794.807 22.9696   2
  -2   6   3 810.884 22.7248   1
  -2   6   3 854.202 20.4738   5
  -2   6   3 820.670 22.3357   3
  -2   6   3 808.498 22.3284   4
  -2   6   3 816.716 23.1150   2
  -2   6   3 812.618 22.2581   3
  -2   6   3 815.252 20.5272   5
  -2   6   3 815.177 22.7214   1
  -1   6   3 65.0508 4.10209   2
  -1   6   3 70.5294 4.04699   1
  -1   6   3 73.4691 4.16865   3
  -1   6   3 65.0083 3.84276   4
   0  -6  -3 44.0949 3.00196   1
   0   6   3 45.1340 3.17803   1
   0   6   3 44.3099 3.21679   2
   0   6   3 52.0036 3.40799   4
   0   6   3 47.9666 3.66342   3
   0   6   3 48.7074 3.40935   4
  -1  -6  -3 709.317 20.3194   1
   1   6   3 734.079 18.8284   5
   1   6   3 714.567 20.7812   2
   1   6   3 725.491 18.8726   5
   1   6   3 759.903 20.4536   1
   1   6   3 745.040 20.9626   4
   1   6   3 736.569 20.7854   3
   1   6   3 777.732 21.0858   4
   1   6   3 771.754 19.9974   2
  -2  -6  -3 51.7111 3.73078   3
  -2  -6  -3 46.8386 3.15837   1
   2   6   3 47.9581 2.70065   5
   2   6   3 47.7170 3.75395   3
   2   6   3 48.0401 2.60916   5
   2   6   3 51.1068 3.93748   4
   2   6   3 49.9352 3.17590   1
  -3  -6  -3 5.53053 1.06916   5
  -3  -6  -3 8.93001 2.54703   3
  -3  -6  -3 11.4058 1.80894   5
  -3  -6  -3 7.14835 2.02210   1
   3   6   3 12.7877 2.59707   1
   3   6   3 5.41232 1.63732   4
   3   6   3 10.1149 1.98983   2
   3   6   3 11.4333 2.22410   5
   3   6   3 7.13637 1.98785   3
   3   6   3 8.85179 2.03354   5
  -4  -6  -3 1251.13 32.1800   2
  -4  -6  -3 1241.74 31.6130   5
  -4  -6  -3 1220.31 32.9369   1
  -4  -6  -3 1217.49 33.2716   3
   4   6   3 1239.27 33.8127   4
   4   6   3 1239.55 32.2078   2
   4   6   3 1241.09 32.4329   5
   4   6   3 1260.90 32.2575   5
   4   6   3 1127.81 32.8756   3
   4   6   3 1158.35 32.7580   1
  -5  -6  -3 335.720 11.7322   2
  -5  -6  -3 344.940 12.1587   1
  -5  -6  -3 352.870 12.3584   3
  -5  -6  -3 351.765 11.3035   5
   5   6   3 353.530 11.9842   5
   5   6   3 345.523 11.7958   5
   5   6   3 352.657 11.6357   2
   5   6   3 342.174 12.9034   4
  -6  -6  -3 19.9088 3.69075   1
  -6  -6  -3 24.7308 5.35052   2
  -6  -6  -3 16.9155 4.33842   5
  -6  -6  -3 16.2915 3.95824   3
   6   6   3 21.5980 4.06837   2
   6   6   3 10.9142 3.89183   4
   6   6   3 11.7744 3.72981   5
  -7  -6  -3 5.03770 2.70400   5
  -7  -6  -3 4.41538 2.61751   3
  -7  -6  -3 5.29338 2.08514   1
   7   6   3 2.44268 2.44959   2
   7   6   3 1.98927 2.98262   5
   7   6   3 1.67895 2.44341   5
   7   6   3 1.93502 2.24305   4
  -8  -6  -3 -1.5634 2.23414   1
   8   6   3 0.07110 2.87327   2
   8   6   3 2.88627 3.25031   4
   8   6   3 -5.2340 2.83539   5
  -9  -6  -3 106.050 8.70978   1
   9   6   3 111.420 10.3540   4
   9   6   3 116.817 11.8712   5
   9   6   3 126.970 10.1527   2
   7  -7  -3 78.2547 9.85148   2
  -7   7   3 92.7897 8.53679   1
  -7   7   3 104.134 7.75135   5
   6  -7  -3 76.0599 8.44270   2
  -6   7   3 94.6034 7.57875   1
  -6   7   3 103.623 6.08168   5
   5  -7  -3 -2.7068 2.28141   2
  -5   7   3 2.75639 2.10577   1
  -5   7   3 2.82126 1.72360   3
  -5   7   3 1.02081 1.83580   5
  -5   7   3 2.19414 1.51193   5
   4  -7  -3 2.65266 2.10645   2
  -4   7   3 2.71930 2.30265   3
  -4   7   3 1.06903 1.16863   5
  -4   7   3 3.21053 1.82283   4
  -4   7   3 3.18150 1.75049   3
  -4   7   3 1.11430 1.66138   1
  -4   7   3 1.19456 1.46798   5
   3  -7  -3 13.7618 3.74593   2
  -3   7   3 13.2672 4.07054   3
  -3   7   3 14.0868 2.25014   5
  -3   7   3 10.2841 2.61603   3
  -3   7   3 18.3493 3.67178   1
  -3   7   3 14.1052 1.85481   5
  -3   7   3 16.5367 3.29648   4
   2  -7  -3 90.8966 5.21754   2
  -2   7   3 93.6246 3.29976   5
  -2   7   3 90.5447 4.80017   3
  -2   7   3 95.8939 5.50905   3
  -2   7   3 91.6292 3.20606   5
  -2   7   3 90.8820 4.93154   4
  -2   7   3 82.3825 6.03875   2
  -2   7   3 109.086 7.50845   1
  -2   7   3 93.9358 5.31722   1
  -1   7   3 980.486 26.0903   4
  -1   7   3 979.766 26.3858   3
  -1   7   3 957.550 26.2232   3
  -1   7   3 935.073 25.9353   4
  -1   7   3 909.950 26.1638   1
  -1   7   3 951.523 25.9770   2
   0   7   3 186.092 7.42262   1
   0   7   3 194.284 7.09172   2
   0   7   3 193.047 7.77146   3
   0   7   3 197.518 7.59294   4
   0   7   3 188.391 7.50381   4
  -1  -7  -3 21.4332 2.64480   1
   1   7   3 21.3459 3.08503   4
   1   7   3 16.2711 2.57690   1
   1   7   3 16.2018 2.47562   2
   1   7   3 18.5463 2.20179   2
   1   7   3 14.5554 1.91023   5
   1   7   3 23.7891 3.17983   4
   1   7   3 18.7286 1.69993   5
   1   7   3 12.5346 3.26753   3
  -2  -7  -3 216.056 8.32265   1
   2   7   3 234.186 9.07214   4
   2   7   3 215.609 8.28424   1
   2   7   3 223.157 7.48847   2
   2   7   3 221.906 8.85196   3
   2   7   3 225.704 7.22430   5
   2   7   3 229.714 7.16008   5
  -3  -7  -3 0.38315 0.99882   5
  -3  -7  -3 0.44764 1.14806   1
  -3  -7  -3 0.97289 0.82869   5
   3   7   3 1.04172 1.62272   1
   3   7   3 0.97081 1.07950   5
   3   7   3 1.25669 0.98243   2
   3   7   3 2.94442 1.60444   4
   3   7   3 0.54162 1.10739   5
  -4  -7  -3 760.864 21.2859   2
  -4  -7  -3 782.422 22.5266   1
  -4  -7  -3 794.474 20.7998   5
   4   7   3 763.186 23.2013   4
   4   7   3 752.472 21.4233   5
   4   7   3 777.440 21.3109   2
   4   7   3 757.580 21.6933   5
  -5  -7  -3 13.4452 4.35781   2
  -5  -7  -3 12.8916 3.27088   1
  -5  -7  -3 10.7086 3.41011   5
   5   7   3 5.35761 2.32815   5
   5   7   3 11.1578 3.37275   2
   5   7   3 6.11439 1.98094   5
   5   7   3 7.71373 2.42337   4
  -6  -7  -3 165.098 8.56480   1
  -6  -7  -3 154.313 8.67443   2
  -6  -7  -3 164.808 7.84888   5
   6   7   3 165.399 8.22550   5
   6   7   3 165.217 8.29887   5
   6   7   3 159.492 8.83936   4
   6   7   3 170.294 7.70388   2
  -7  -7  -3 10.3582 2.84902   1
  -7  -7  -3 22.5274 7.11608   5
   7   7   3 4.89094 2.62067   4
   7   7   3 10.2372 2.93083   2
   7   7   3 10.0062 3.12795   5
  -8  -7  -3 8.00193 3.39257   1
   8   7   3 -1.0772 3.24723   4
   8   7   3 2.24897 3.27458   2
   8   7   3 3.64496 3.29032   5
  -9  -7  -3 9.89024 4.19509   1
   9   7   3 3.79867 4.30040   2
   9   7   3 -1.6826 3.89153   4
   9   7   3 8.92982 5.71950   5
  -6   8   3 25.5517 5.06810   5
  -6   8   3 20.3738 6.12348   1
   5  -8  -3 -1.4252 2.61385   2
  -5   8   3 1.57952 1.81516   5
  -5   8   3 1.80272 2.48388   1
  -5   8   3 2.44436 2.08742   3
   4  -8  -3 66.7086 6.29987   2
  -4   8   3 63.4224 6.39895   3
  -4   8   3 58.1845 3.73010   5
  -4   8   3 66.5847 4.96745   3
  -4   8   3 58.7927 6.10733   1
   3  -8  -3 5.80384 2.20513   2
  -3   8   3 4.07217 2.34111   4
  -3   8   3 5.51915 2.04885   1
  -3   8   3 6.90316 1.88390   5
  -3   8   3 7.84411 2.31571   5
  -3   8   3 13.0278 3.45035   3
  -3   8   3 6.27307 3.44068   3
  -2   8   3 3.55052 1.67995   4
  -2   8   3 3.18268 1.74834   1
  -2   8   3 2.93369 1.74795   4
  -2   8   3 3.43355 1.70635   3
  -2   8   3 -0.6907 2.76923   2
  -2   8   3 16.0894 4.98749   3
  -1   8   3 13.1180 3.12352   4
  -1   8   3 6.82273 1.90830   4
  -1   8   3 9.09034 3.27111   3
  -1   8   3 7.98443 2.33850   2
  -1   8   3 9.13123 3.09674   3
   0   8   3 37.0091 3.53054   2
   0   8   3 36.0237 3.27225   2
   0   8   3 38.0821 3.90214   4
   0   8   3 37.2760 2.02513   5
   0   8   3 41.7760 4.14860   4
   0   8   3 36.3336 2.09090   5
   0   8   3 35.0968 3.81418   3
  -1  -8  -3 540.809 16.5077   1
   1   8   3 533.519 15.2536   2
   1   8   3 532.844 14.3154   5
   1   8   3 510.343 16.5881   4
   1   8   3 538.233 14.3909   5
   1   8   3 538.689 15.2748   2
   1   8   3 547.233 16.8699   4
  -2  -8  -3 66.3118 4.59110   1
   2   8   3 60.6542 3.72643   2
   2   8   3 58.9251 3.53333   5
   2   8   3 61.4765 3.44988   5
   2   8   3 62.6586 5.16926   4
   2   8   3 64.7440 3.49175   2
  -3  -8  -3 52.5246 4.04335   1
   3   8   3 51.8317 3.81695   5
   3   8   3 54.7120 3.50921   2
   3   8   3 49.0063 3.69157   5
   3   8   3 44.1257 4.72134   4
  -4  -8  -3 62.8804 3.96846   5
  -4  -8  -3 71.7925 5.13987   1
   4   8   3 66.7632 4.63507   5
   4   8   3 64.3178 4.68266   5
   4   8   3 70.4132 4.22313   2
   4   8   3 69.4298 5.94016   4
  -5  -8  -3 188.712 8.31907   2
  -5  -8  -3 208.232 7.91984   5
  -5  -8  -3 190.757 8.88993   1
   5   8   3 187.399 8.64128   5
   5   8   3 191.399 9.44877   4
   5   8   3 189.718 7.68463   2
   5   8   3 193.163 8.65107   5
  -6  -8  -3 34.0925 5.84294   5
  -6  -8  -3 37.9314 4.79048   1
  -6  -8  -3 37.2887 6.34320   2
   6   8   3 44.9055 5.02082   2
   6   8   3 28.4614 6.55477   5
   6   8   3 38.0566 5.81409   4
   6   8   3 37.8686 5.23926   5
  -7  -8  -3 2.94330 2.69702   1
   7   8   3 2.56154 2.70214   5
   7   8   3 1.45524 2.69982   4
   7   8   3 3.59900 2.81279   2
   8   8   3 33.9042 8.90124   5
   8   8   3 43.4377 7.47233   2
   8   8   3 43.2958 8.34735   4
  -9  -8  -3 50.1807 10.4057   1
   9   8   3 34.7325 11.6219   5
   9   8   3 65.9958 10.7080   2
   9   8   3 38.7467 10.0612   4
   6  -9  -3 14.1321 4.89218   2
  -6   9   3 3.77690 3.49105   1
  -6   9   3 7.94355 2.92475   5
   5  -9  -3 -0.9041 3.34818   2
  -5   9   3 3.23166 2.72070   5
  -5   9   3 2.20336 2.71505   1
  -5   9   3 14.2833 4.11970   5
  -5   9   3 2.94245 2.80796   3
   4  -9  -3 69.8623 7.12821   2
  -4   9   3 68.9737 4.14805   5
  -4   9   3 75.6591 5.72259   3
  -4   9   3 62.2212 5.13282   5
  -4   9   3 73.6639 5.61721   4
  -4   9   3 59.8788 6.42848   1
   3  -9  -3 120.584 7.57525   2
  -3   9   3 114.260 4.90780   5
  -3   9   3 127.125 7.76910   1
  -3   9   3 118.540 6.70116   3
  -3   9   3 122.387 6.45857   4
  -3   9   3 103.158 9.52906   4
  -3   9   3 119.987 4.70835   5
  -2   9   3 11.8740 3.95110   3
  -2   9   3 8.88188 1.95194   5
  -2   9   3 9.65783 2.50932   4
  -2   9   3 11.5115 1.85284   5
  -2   9   3 10.9115 3.85712   1
  -2   9   3 16.7949 4.21238   4
  -1   9   3 0.59626 0.80057   5
  -1   9   3 -2.9740 2.00414   4
  -1   9   3 0.78618 1.78548   3
  -1   9   3 -0.8395 1.62328   4
  -1   9   3 13.5024 4.72905   2
   0   9   3 8.18526 1.76345   5
   0   9   3 5.89061 2.24931   4
   0   9   3 9.35546 2.76557   2
   0   9   3 6.34806 2.13470   4
   0   9   3 10.3364 1.87890   5
   0   9   3 7.55100 2.31153   3
   0   9   3 7.64770 2.20567   2
  -1  -9  -3 72.0714 5.26956   1
   1   9   3 70.6667 3.46101   5
   1   9   3 71.1146 4.62349   2
   1   9   3 75.4950 3.53954   5
   1   9   3 82.8285 5.94680   4
   1   9   3 73.0596 4.04250   2
  -2  -9  -3 261.094 10.4011   1
   2   9   3 266.052 8.76915   2
   2   9   3 270.089 9.02836   2
   2   9   3 298.385 11.4091   4
   2   9   3 283.687 8.93082   5
   2   9   3 277.105 9.02647   5
  -3  -9  -3 19.9729 4.02562   1
   3   9   3 21.9117 2.90518   2
   3   9   3 17.9417 4.33435   4
   3   9   3 17.5513 3.25076   5
   3   9   3 14.2460 3.39420   2
   3   9   3 16.4958 3.38229   5
  -4  -9  -3 9.63335 2.47663   1
  -4  -9  -3 16.9476 3.08175   5
   4   9   3 13.7670 4.32697   5
   4   9   3 18.3032 3.24915   2
   4   9   3 8.38946 2.80223   4
   4   9   3 11.8921 3.62166   5
  -5  -9  -3 3.86522 2.24114   1
  -5  -9  -3 1.16818 2.21643   5
   5   9   3 -0.5003 2.65917   5
   5   9   3 3.76663 2.53549   4
   5   9   3 2.18648 2.17095   5
   5   9   3 0.21912 1.92660   2
  -6  -9  -3 82.8460 6.87041   1
   6   9   3 77.1133 7.52020   4
   6   9   3 90.5786 6.16142   2
   6   9   3 89.7468 7.24225   5
  -7  -9  -3 30.4837 6.40263   1
   7   9   3 52.1167 6.74335   2
   7   9   3 44.4544 7.07874   4
   7   9   3 50.0181 8.09379   5
  -8  -9  -3 126.540 10.1322   1
   8   9   3 151.569 12.0121   4
   8   9   3 122.808 9.66559   2
   5 -10  -3 -4.0244 3.73948   2
  -5  10   3 -0.7420 2.32956   5
  -5  10   3 -1.1936 2.96766   1
   4 -10  -3 10.5081 3.58236   2
  -4  10   3 7.65168 2.39449   5
  -4  10   3 6.27522 3.08761   1
  -4  10   3 8.14729 1.97867   5
  -4  10   3 6.85938 2.99339   3
  -3  10   3 5.62972 2.90024   1
  -3  10   3 -0.8163 1.44657   5
  -3  10   3 5.99451 3.06850   3
  -3  10   3 1.90556 1.32051   5
  -3  10   3 -3.2486 2.66539   4
  -2  10   3 1.01018 1.12574   5
  -2  10   3 1.60858 2.31675   1
  -2  10   3 2.70282 1.21003   5
  -2  10   3 2.03495 2.50048   4
  -2  10   3 6.40201 2.77283   3
  -1  10   3 -1.2990 3.36831   2
  -1  10   3 5.87352 2.55032   3
  -1  10   3 3.11816 2.33904   4
  -1  10   3 2.43418 1.09914   5
  -1  10   3 3.09083 1.05434   5
   0  10   3 39.2254 4.18158   2
   0  10   3 48.8663 5.31484   2
   0  10   3 51.9509 5.16730   3
   0  10   3 45.4795 3.03372   5
   0  10   3 43.9768 5.33629   4
  -1 -10  -3 74.9850 5.78809   1
   1  10   3 66.9519 4.11765   2
   1  10   3 74.5977 6.17758   4
   1  10   3 78.3843 6.27095   3
   1  10   3 77.1316 3.97853   5
   1  10   3 72.6770 5.36399   2
   1  10   3 74.5858 4.02362   5
  -2 -10  -3 19.6011 3.97620   1
   2  10   3 16.7676 3.17671   5
   2  10   3 13.9080 2.92624   5
   2  10   3 21.9895 4.47778   3
   2  10   3 15.0312 3.71103   2
   2  10   3 12.1747 2.71232   2
   2  10   3 22.0174 5.24259   4
  -3 -10  -3 24.2782 4.63612   1
   3  10   3 23.3488 3.83040   2
   3  10   3 23.1630 5.35610   4
   3  10   3 28.6230 4.26483   5
   3  10   3 30.1313 3.68555   5
  -4 -10  -3 46.0120 5.56574   1
   4  10   3 40.1745 3.86809   2
   4  10   3 37.9030 4.70953   5
   4  10   3 36.7842 5.72954   5
   4  10   3 46.3701 6.27956   4
  -5 -10  -3 106.755 7.71982   1
   5  10   3 124.627 5.88248   2
   5  10   3 119.371 8.47286   4
   5  10   3 98.0397 7.05980   5
  -6 -10  -3 9.77174 3.11969   1
   6  10   3 4.49049 2.98129   5
   6  10   3 17.4315 5.06201   2
   6  10   3 9.82094 3.23009   4
  -7 -10  -3 32.9403 6.46998   1
   7  10   3 36.6601 8.63149   4
   7  10   3 28.0352 8.75573   5
  -8 -10  -3 -0.8732 4.23437   1
   8  10   3 4.14302 5.05109   4
   8  10   3 -3.6327 4.83618   5
  -4  11   3 -1.1616 3.49143   1
  -4  11   3 2.11053 4.05346   3
  -4  11   3 2.71986 2.04463   5
  -3  11   3 83.3587 4.44599   5
  -3  11   3 82.9801 5.14939   5
  -3  11   3 89.3750 7.92612   3
  -3  11   3 87.7301 8.45634   1
  -2  11   3 43.9995 3.29847   5
  -2  11   3 42.9640 6.39305   4
  -2  11   3 39.0690 6.52385   3
  -2  11   3 43.5615 3.61427   5
  -2  11   3 44.2143 6.64262   1
  -1  11   3 10.2992 3.31011   3
  -1  11   3 10.7358 2.95913   5
  -1  11   3 17.1303 4.57471   2
  -1  11   3 11.0470 2.54408   5
  -1  11   3 7.80229 2.84814   4
   0  11   3 -0.3521 2.52027   3
   0  11   3 0.55826 2.50326   4
   0  11   3 -1.0656 1.44764   5
   0  11   3 0.94251 1.29920   5
   1  11   3 6.96733 3.22423   3
   1  11   3 6.55743 1.71623   5
   1  11   3 3.92580 1.82647   5
   1  11   3 6.73367 2.90115   4
   1  11   3 4.63415 1.70350   2
  -2 -11  -3 4.21568 2.51120   1
   2  11   3 4.90380 2.95341   3
   2  11   3 3.79974 1.82123   5
   2  11   3 5.67481 1.99884   5
   2  11   3 2.53656 3.00122   4
  -3 -11  -3 4.53136 2.49343   1
   3  11   3 4.48950 2.54199   5
   3  11   3 7.18070 2.29349   5
   3  11   3 7.90771 1.78008   2
   3  11   3 9.84346 3.44138   3
   3  11   3 8.73895 3.57208   4
  -4 -11  -3 8.67260 3.08459   1
   4  11   3 1.71660 2.18712   5
   4  11   3 9.37918 3.61002   3
   4  11   3 6.16379 3.42023   4
  -5 -11  -3 5.66908 3.24848   1
   5  11   3 8.13572 2.94353   5
   5  11   3 5.10027 3.77288   4
  -6 -11  -3 2.32618 3.89129   1
   6  11   3 0.23607 3.95740   4
   6  11   3 4.04032 3.49170   5
  -7 -11  -3 9.97196 4.30207   1
   7  11   3 12.9914 5.04549   5
   7  11   3 16.1209 5.37477   3
  -3  12   3 4.36911 1.84642   5
  -3  12   3 7.18701 4.77913   3
  -3  12   3 2.75180 3.88123   1
  -3  12   3 13.8233 4.57894   5
  -2  12   3 13.1528 3.88978   1
  -2  12   3 23.4187 3.37272   5
  -2  12   3 14.5060 4.42614   4
  -2  12   3 26.0265 4.07391   5
  -2  12   3 31.4296 7.59398   3
  -1  12   3 1.07425 1.57532   5
  -1  12   3 3.99701 1.99733   5
  -1  12   3 -2.1921 2.44663   2
  -1  12   3 0.30106 3.68793   4
  -1  12   3 0.66478 3.58131   3
   0  12   3 21.3125 4.32022   2
   0  12   3 13.1325 3.58901   5
   0  12   3 17.7400 6.02905   3
   0  12   3 18.3808 4.31918   4
   1  12   3 4.31571 1.86430   5
   1  12   3 4.29369 3.53215   3
  -2 -12  -3 3.20447 2.94313   1
   2  12   3 6.82680 2.52202   5
   2  12   3 6.61048 3.65063   3
   2  12   3 -0.0590 3.56839   4
   2  12   3 5.26131 2.15316   5
  -3 -12  -3 2.84762 3.27906   1
   3  12   3 1.26161 3.34063   3
   3  12   3 -0.6049 2.31554   5
   3  12   3 1.48146 3.59175   4
  -4 -12  -3 -0.7173 3.29159   1
   4  12   3 0.78323 2.84054   5
   4  12   3 1.65630 3.98965   3
   4  12   3 0.05595 3.47261   4
  -5 -12  -3 3.46428 3.83642   1
   5  12   3 -0.5333 3.91072   4
   5  12   3 -3.1972 3.02260   5
   5  12   3 4.31570 4.10149   3
  -6 -12  -3 5.09849 4.46049   1
   6  12   3 6.48765 4.51583   5
   6  12   3 2.43012 5.13325   3
   6  12   3 5.01772 4.75588   4
  -1  13   3 19.2636 4.90018   5
  -1  13   3 19.7212 4.06797   5
  -1  13   3 15.9379 5.24400   3
  -1  13   3 19.1203 5.68235   4
   0  13   3 -5.6067 4.03322   3
   0  13   3 1.74320 1.84563   5
   0  13   3 -6.1034 3.89644   4
   0  13   3 6.76733 2.50749   5
   1  13   3 57.6387 8.34005   3
   1  13   3 74.7377 5.68569   5
   1  13   3 72.1141 9.59219   4
  -2 -13  -3 3.68188 3.45787   1
   2  13   3 -4.0681 4.05661   4
   2  13   3 7.70944 2.85190   5
   2  13   3 -1.2765 3.81212   3
  -3 -13  -3 35.3708 8.14675   1
   3  13   3 28.1216 8.96677   4
   3  13   3 32.8893 7.77010   3
   3  13   3 34.1935 5.93885   5
  -4 -13  -3 2.15130 3.89189   1
   4  13   3 0.15080 3.13106   5
   4  13   3 1.46203 4.19199   3
   3  12  -4 36.3312 10.8916   4
   3  12  -4 22.1558 5.27426   5
   3  12  -4 51.5037 11.7416   3
  -3 -12   4 28.2723 9.23539   1
   2  12  -4 3.01545 3.58468   5
   2  12  -4 1.37975 5.48953   4
   2  12  -4 3.30105 5.84554   3
   1  12  -4 20.3111 4.16261   5
   1  12  -4 36.4844 9.17074   4
   1  12  -4 42.0480 9.94172   3
   0  12  -4 8.67779 5.03138   3
   0  12  -4 9.50061 3.81125   5
  -1  12  -4 24.0604 6.77372   5
  -1  12  -4 11.5374 5.89724   3
   5  11  -4 11.5961 5.63347   5
   5  11  -4 2.50606 5.15197   4
   5  11  -4 -8.6632 5.71042   3
  -5 -11   4 -2.4834 4.26899   1
   4  11  -4 48.4346 9.91807   4
   4  11  -4 55.8553 9.51711   5
   4  11  -4 31.8685 6.61704   3
  -4 -11   4 44.0905 8.08295   1
   3  11  -4 7.78221 4.02711   4
   3  11  -4 6.99343 3.86981   5
  -3 -11   4 -2.4036 3.54173   1
   2  11  -4 0.63818 4.47936   3
   2  11  -4 22.6948 7.05250   5
   2  11  -4 -2.5505 3.46399   4
  -2 -11   4 0.48289 3.37240   1
   1  11  -4 36.2532 6.25833   5
   1  11  -4 36.6051 7.54574   4
   1  11  -4 30.1287 7.77315   3
   0  11  -4 25.7356 6.51204   4
   0  11  -4 7.28971 3.90001   3
   0  11  -4 8.18825 2.85735   5
  -1  11  -4 -2.9993 2.31658   5
  -1  11  -4 -0.0720 3.66323   3
  -2  11  -4 26.1132 8.20813   3
  -2  11  -4 29.0829 5.91895   5
  -2  11  -4 26.5377 7.64926   1
  -3  11  -4 10.5051 5.04347   3
  -3  11  -4 10.0872 4.62444   1
   6  10  -4 -10.704 5.56608   3
   6  10  -4 12.0702 5.77715   5
   6  10  -4 -1.9537 4.66149   4
  -6 -10   4 -0.9680 4.22360   1
   5  10  -4 22.1978 5.97650   3
   5  10  -4 29.6473 8.91541   5
   5  10  -4 29.1759 9.23351   4
  -5 -10   4 13.4805 3.96073   1
   4  10  -4 38.2897 8.63698   4
   4  10  -4 32.2390 8.57844   3
   4  10  -4 35.4506 8.23312   5
   3  10  -4 83.3660 8.92291   3
   3  10  -4 88.4206 8.74527   4
   3  10  -4 95.4502 8.67178   5
  -3 -10   4 83.8705 7.66541   1
   2  10  -4 -6.5091 3.38158   3
   2  10  -4 -2.5854 2.45420   5
   2  10  -4 -0.8690 3.01636   4
  -2 -10   4 4.53360 2.91908   1
   1  10  -4 324.412 13.0478   4
   1  10  -4 319.140 12.6165   5
   1  10  -4 335.411 14.7028   3
   0  10  -4 26.7445 5.22188   5
   0  10  -4 17.9124 5.23216   4
   0  10  -4 22.3509 6.47812   3
  -1  10  -4 42.0630 5.32037   5
  -1  10  -4 42.3106 6.56419   3
  -1  10  -4 32.1756 4.90511   4
  -2  10  -4 -3.3154 2.61743   1
  -2  10  -4 -4.3939 3.34246   3
  -2  10  -4 -3.4448 1.99183   5
  -3  10  -4 3.78224 3.76600   3
  -3  10  -4 4.18372 2.51666   5
  -3  10  -4 1.14366 3.45525   1
   3 -10   4 5.64824 3.07910   2
  -4  10  -4 28.8800 8.54537   1
  -4  10  -4 48.4976 8.83438   3
  -4  10  -4 51.7051 6.78552   5
   4 -10   4 50.6390 7.74977   2
   6   9  -4 8.64894 4.90568   5
   6   9  -4 6.56256 4.02811   4
   6   9  -4 12.0396 5.43744   3
  -6  -9   4 9.89351 3.87325   1
   5   9  -4 0.11253 3.86364   4
   5   9  -4 3.89718 4.29273   3
   5   9  -4 2.63969 3.78250   5
  -5  -9   4 3.62734 3.28036   1
   4   9  -4 36.7344 6.69298   5
   4   9  -4 38.6726 7.12432   4
   4   9  -4 39.9884 7.14165   3
   3   9  -4 11.8395 3.08692   5
   3   9  -4 19.9182 6.35033   3
   3   9  -4 11.0451 3.21669   4
  -3  -9   4 10.1258 3.02414   1
   2   9  -4 138.450 8.61828   3
   2   9  -4 145.061 7.92565   5
   2   9  -4 144.218 8.44679   4
   2   9  -4 127.801 8.25504   5
  -2  -9   4 146.660 8.29446   1
  -2  -9   4 136.061 7.78202   5
   1   9  -4 -1.7247 2.74080   5
   1   9  -4 -1.1752 2.05982   4
   1   9  -4 3.51206 1.93672   5
   1   9  -4 2.97302 2.97584   3
  -1  -9   4 3.84416 2.50272   5
  -1  -9   4 -0.6214 1.97259   1
   0   9  -4 94.6721 5.73448   4
   0   9  -4 89.9097 7.12429   3
   0   9  -4 87.6221 5.58682   5
   0   9  -4 75.4204 6.60804   5
   0  -9   4 93.3828 6.83328   4
   0  -9   4 101.387 6.17487   5
  -1   9  -4 19.6299 5.14329   3
  -1   9  -4 7.61014 2.62076   5
  -1   9  -4 12.1195 3.87343   5
  -1   9  -4 12.7973 3.72330   4
  -2   9  -4 33.5157 5.36561   1
  -2   9  -4 32.3565 5.94252   3
  -2   9  -4 30.6220 4.53443   5
   2  -9   4 31.6133 4.26954   2
  -3   9  -4 -1.8271 2.74239   3
  -3   9  -4 -0.7456 2.65205   1
  -3   9  -4 -2.9078 2.12606   5
   3  -9   4 0.60627 2.28461   2
  -4   9  -4 21.3246 5.69844   5
  -4   9  -4 22.4113 7.06192   3
   4  -9   4 30.3521 6.70150   2
  -5   9  -4 -0.5858 2.63562   5
  -5   9  -4 1.74647 3.32673   1
  -5   9  -4 5.99082 4.64480   3
   5  -9   4 5.67856 4.20372   2
   7   8  -4 -4.2355 4.56067   3
   7   8  -4 -3.9058 3.78807   5
   7   8  -4 5.63244 4.93251   4
  -7  -8   4 -2.9651 3.24182   1
   6   8  -4 10.2003 4.77919   3
   6   8  -4 6.47751 3.58636   4
   6   8  -4 5.88961 3.48619   5
  -6  -8   4 4.73625 2.77717   1
   5   8  -4 4.00743 3.23586   4
   5   8  -4 2.40188 2.56459   5
   5   8  -4 -1.0635 3.16909   3
  -5  -8   4 -1.2554 3.45393   5
  -5  -8   4 0.94646 2.32272   1
   4   8  -4 9.60839 4.68548   5
   4   8  -4 9.85766 3.00623   4
   4   8  -4 10.5738 3.30754   3
   4   8  -4 16.6505 5.57004   5
  -4  -8   4 17.3209 4.82446   1
  -4  -8   4 18.0878 5.51574   5
   3   8  -4 1.93467 2.74991   3
   3   8  -4 -2.3747 2.04022   4
   3   8  -4 3.71570 2.56421   5
   3   8  -4 1.78791 2.23875   5
  -3  -8   4 1.50728 2.33338   5
  -3  -8   4 2.67304 2.03232   1
   2   8  -4 16.3664 4.48201   4
   2   8  -4 18.3745 5.04980   3
   2   8  -4 16.9697 5.09071   5
   2   8  -4 24.6155 4.61333   5
  -2  -8   4 20.0415 3.94617   1
  -2  -8   4 17.2382 4.29400   5
   1   8  -4 47.4362 5.53227   3
   1   8  -4 48.8843 4.62437   4
   1   8  -4 39.2907 5.07624   5
   1   8  -4 46.6913 4.77992   5
  -1  -8   4 47.8811 4.57244   5
  -1  -8   4 40.6732 6.23862   4
  -1  -8   4 46.2381 4.68487   1
   0   8  -4 34.7110 4.66800   3
   0   8  -4 33.1798 4.40219   5
   0   8  -4 37.5220 3.88846   4
   0   8  -4 40.8138 4.37891   5
   0  -8   4 34.1040 4.40987   5
   0  -8   4 42.2485 4.98022   4
  -1   8  -4 19.3534 4.49059   3
  -1   8  -4 17.7960 3.14783   4
  -1   8  -4 17.1712 2.94049   2
  -1   8  -4 15.0153 3.39424   5
  -1   8  -4 13.3199 4.20343   5
   1  -8   4 13.6286 3.64989   4
   1  -8   4 16.2203 2.51798   2
   1  -8   4 25.0567 4.11980   5
  -2   8  -4 6.92813 2.19991   5
  -2   8  -4 8.00517 2.70308   3
  -2   8  -4 7.95739 2.26146   2
  -2   8  -4 7.14778 2.38090   1
  -2   8  -4 6.25824 2.10019   5
   2  -8   4 9.65288 3.17436   2
   2  -8   4 2.38609 2.50307   5
  -3   8  -4 119.577 7.77377   3
  -3   8  -4 108.817 7.08740   5
  -3   8  -4 94.1463 8.38542   2
  -3   8  -4 124.841 7.87297   1
  -3   8  -4 111.027 6.58063   5
   3  -8   4 84.5791 8.81510   5
   3  -8   4 115.802 6.31281   2
  -4   8  -4 21.5730 5.63154   3
  -4   8  -4 16.1558 3.50619   1
  -4   8  -4 18.0448 4.77847   5
   4  -8   4 18.3937 4.89066   2
  -5   8  -4 3.91724 2.94102   1
  -5   8  -4 13.6584 4.46896   3
  -5   8  -4 6.12698 2.49372   5
   5  -8   4 6.14812 3.00851   2
  -6   8  -4 2.85085 3.35877   1
  -6   8  -4 5.65223 4.42409   3
  -6   8  -4 -1.5927 2.59998   5
   8   7  -4 4.50936 5.47558   4
  -8  -7   4 1.55254 4.33698   1
   7   7  -4 14.3965 4.60807   4
   7   7  -4 13.9351 5.42015   5
   7   7  -4 17.6413 4.69470   3
  -7  -7   4 11.7305 3.84118   1
   6   7  -4 29.9825 7.19432   5
   6   7  -4 44.5595 7.11893   3
   6   7  -4 54.2277 7.25002   4
  -6  -7   4 52.7593 7.57159   5
  -6  -7   4 51.1270 6.07828   1
   5   7  -4 19.5210 5.72098   4
   5   7  -4 6.16872 2.62539   5
   5   7  -4 5.80604 2.91637   3
   5   7  -4 21.9061 7.19378   5
  -5  -7   4 15.4036 4.26051   1
  -5  -7   4 10.8098 3.00827   2
  -5  -7   4 18.1937 5.83326   5
   4   7  -4 0.78562 2.28241   3
   4   7  -4 1.73630 2.21832   5
   4   7  -4 0.83704 2.76610   5
   4   7  -4 -0.2988 2.31730   4
  -4  -7   4 0.48353 2.13593   5
  -4  -7   4 1.63993 1.68023   1
   3   7  -4 -1.2163 2.03638   3
   3   7  -4 -0.6584 1.84195   5
   3   7  -4 4.46482 1.99140   5
   3   7  -4 0.26493 1.85097   4
  -3  -7   4 -0.0175 1.38869   1
  -3  -7   4 0.23885 1.88008   5
   2   7  -4 140.141 7.21631   4
   2   7  -4 140.428 6.73754   5
   2   7  -4 136.368 7.47821   3
   2   7  -4 128.401 7.08496   5
  -2  -7   4 130.627 6.73627   1
  -2  -7   4 140.373 6.82619   5
   1   7  -4 206.560 8.11080   5
   1   7  -4 203.974 8.17803   4
   1   7  -4 203.343 8.26536   5
   1   7  -4 196.163 8.94404   3
  -1  -7   4 199.926 8.25839   1
  -1  -7   4 188.337 8.83838   4
   0   7  -4 8.22084 2.68924   4
   0   7  -4 8.60808 2.80903   5
   0   7  -4 6.98982 2.24808   3
   0   7  -4 6.34297 1.89529   5
   0  -7   4 8.11841 1.99238   4
   0  -7   4 12.3159 3.11761   5
  -1   7  -4 15.2914 3.35303   5
  -1   7  -4 14.9821 3.49295   3
  -1   7  -4 12.8627 2.66587   2
  -1   7  -4 14.6857 2.98113   5
  -1   7  -4 11.1124 2.53254   4
   1  -7   4 12.4815 3.09287   4
   1  -7   4 14.2846 3.55848   5
   1  -7   4 14.4099 2.37909   2
  -2   7  -4 153.985 7.51470   1
  -2   7  -4 146.983 7.66110   3
  -2   7  -4 143.198 6.44572   2
  -2   7  -4 138.254 6.71532   5
  -2   7  -4 135.011 6.88227   5
   2  -7   4 142.154 6.06042   2
   2  -7   4 151.936 6.50252   5
  -3   7  -4 29.5269 4.16172   5
  -3   7  -4 43.1488 5.73019   2
  -3   7  -4 33.5891 4.84438   5
  -3   7  -4 34.1128 4.88984   3
  -3   7  -4 34.0498 4.63819   1
   3  -7   4 29.1449 4.11970   2
   3  -7   4 35.1536 4.67416   5
  -4   7  -4 30.0335 4.57110   5
  -4   7  -4 28.1218 5.09450   1
  -4   7  -4 25.2248 5.15982   3
  -4   7  -4 27.8199 4.71868   5
   4  -7   4 26.6125 4.92715   2
   4  -7   4 22.3893 4.98756   5
  -5   7  -4 -3.1331 1.89779   5
  -5   7  -4 0.98960 2.50214   1
  -5   7  -4 1.07905 3.01297   3
   5  -7   4 -0.2747 2.39086   2
  -6   7  -4 16.8330 3.53028   1
  -6   7  -4 11.5824 3.12562   5
  -6   7  -4 17.0145 4.12051   3
   6  -7   4 11.5040 3.71477   2
  -7   7  -4 0.96271 4.25379   3
  -7   7  -4 -5.9704 2.83587   5
  -7   7  -4 2.63310 3.88339   1
   7  -7   4 -2.4684 3.75562   2
   8   6  -4 5.72036 4.07677   2
   8   6  -4 -1.5986 4.17134   4
  -8  -6   4 0.07834 3.74197   1
   7   6  -4 -0.0833 2.63359   2
   7   6  -4 -0.2307 3.21131   4
   7   6  -4 5.36451 3.27628   3
   7   6  -4 7.24828 4.24432   5
  -7  -6   4 2.67758 2.91939   1
  -7  -6   4 -3.5521 3.42631   5
   6   6  -4 50.1543 5.91209   3
   6   6  -4 69.1935 7.40159   4
   6   6  -4 60.6056 7.03051   5
  -6  -6   4 63.1044 7.12086   5
  -6  -6   4 46.9993 5.11633   1
   5   6  -4 106.448 6.57516   3
   5   6  -4 100.012 7.02139   4
   5   6  -4 87.0491 7.52995   5
   5   6  -4 95.2004 7.10512   5
  -5  -6   4 97.7647 6.84982   5
  -5  -6   4 92.5040 5.89652   2
  -5  -6   4 98.5190 6.17376   1
   4   6  -4 66.8295 5.76162   5
   4   6  -4 62.0605 5.57921   5
   4   6  -4 67.2448 5.23556   3
   4   6  -4 86.1439 7.21397   3
   4   6  -4 69.7280 6.05067   4
  -4  -6   4 67.6205 5.46125   5
  -4  -6   4 67.4647 4.93009   1
  -4  -6   4 54.9083 3.74848   2
   3   6  -4 45.0086 4.69619   5
   3   6  -4 45.8599 4.49765   5
   3   6  -4 51.0938 4.67294   3
   3   6  -4 45.1017 4.75183   4
  -3  -6   4 45.5292 4.35220   5
  -3  -6   4 44.3331 2.33279   2
  -3  -6   4 44.0936 3.90677   1
   2   6  -4 144.778 6.82258   5
   2   6  -4 144.352 7.00555   3
   2   6  -4 153.710 7.10981   4
   2   6  -4 136.417 6.72866   5
   2   6  -4 133.845 6.50162   1
  -2  -6   4 139.760 7.52180   4
  -2  -6   4 145.995 6.47499   5
  -2  -6   4 156.128 8.72373   5
  -2  -6   4 133.974 6.28657   1
   1   6  -4 35.6271 3.47168   4
   1   6  -4 37.2131 3.98518   3
   1   6  -4 34.1426 3.72969   5
   1   6  -4 30.0375 3.36638   1
   1   6  -4 35.3602 3.61061   5
  -1  -6   4 45.5750 6.25247   3
  -1  -6   4 35.3072 3.15439   1
  -1  -6   4 41.5806 3.53733   5
  -1  -6   4 37.2488 4.76073   4
  -1  -6   4 34.4613 3.45891   5
   0   6  -4 72.3589 4.45466   5
   0   6  -4 67.5718 4.92235   3
   0   6  -4 73.9980 4.70477   1
   0   6  -4 73.4891 4.25135   5
   0   6  -4 71.3177 4.10173   4
   0  -6   4 83.2569 5.19124   5
   0  -6   4 73.5951 4.38703   1
   0  -6   4 76.0549 4.70285   4
   0  -6   4 72.4032 3.02073   2
  -1   6  -4 -2.1833 1.48060   1
  -1   6  -4 0.38036 1.09867   2
  -1   6  -4 -1.3890 1.30890   3
  -1   6  -4 0.71167 1.17362   5
  -1   6  -4 -0.2569 1.50960   5
  -1   6  -4 -0.4548 1.06452   4
   1  -6   4 1.20724 1.04623   2
   1  -6   4 -1.1934 1.31803   5
   1  -6   4 0.45726 1.21354   4
  -2   6  -4 1.93957 1.53275   3
  -2   6  -4 1.99751 1.46323   5
  -2   6  -4 1.13080 1.37368   1
  -2   6  -4 1.86886 1.53087   5
  -2   6  -4 1.06480 1.62340   2
   2  -6   4 1.21819 1.28815   2
   2  -6   4 1.37893 1.26732   5
  -3   6  -4 46.3614 4.19370   5
  -3   6  -4 47.3838 4.56601   3
  -3   6  -4 49.9761 5.40269   2
  -3   6  -4 49.5195 4.72253   1
  -3   6  -4 39.8484 4.36312   5
   3  -6   4 46.9705 4.20649   5
   3  -6   4 48.7185 4.28095   2
  -4   6  -4 40.7985 4.88020   3
  -4   6  -4 46.9783 4.83006   1
  -4   6  -4 42.1395 4.33109   5
  -4   6  -4 44.7538 4.81960   5
   4  -6   4 43.0573 4.63794   5
   4  -6   4 34.2141 4.34525   2
  -5   6  -4 13.8065 4.77844   3
  -5   6  -4 11.0683 2.85503   5
  -5   6  -4 21.2299 4.32102   5
  -5   6  -4 17.8752 4.29317   1
   5  -6   4 14.6413 3.09868   5
   5  -6   4 18.0722 4.83816   2
  -6   6  -4 2.88225 2.89107   3
  -6   6  -4 2.65612 2.58380   1
  -6   6  -4 3.78932 2.43875   5
   6  -6   4 4.37903 2.89922   2
  -7   6  -4 14.1111 4.23018   3
  -7   6  -4 19.1000 6.37732   5
  -7   6  -4 6.65928 3.42465   1
   7  -6   4 12.7561 4.36688   2
   8   5  -4 50.8016 8.75510   4
   8   5  -4 26.7344 8.20193   2
  -8  -5   4 45.3133 8.13591   1
  -8  -5   4 47.1647 10.6092   5
   7   5  -4 -3.1968 3.41680   5
   7   5  -4 3.60854 3.12118   2
   7   5  -4 -0.6859 3.00135   4
   7   5  -4 -2.3945 2.25717   3
  -7  -5   4 -3.4897 2.45543   1
  -7  -5   4 -1.7635 3.47248   5
   6   5  -4 4.14477 2.62345   4
   6   5  -4 -4.8314 2.88138   3
   6   5  -4 2.75480 2.46138   3
   6   5  -4 -2.6429 1.85296   2
   6   5  -4 -0.7681 2.61177   5
  -6  -5   4 -0.4435 2.13834   1
  -6  -5   4 -1.9734 3.33180   2
  -6  -5   4 -0.7129 2.49101   5
   5   5  -4 5.50813 2.96384   5
   5   5  -4 10.2602 3.02285   2
   5   5  -4 14.6668 4.80213   5
   5   5  -4 10.1805 2.59001   3
   5   5  -4 8.77387 2.55094   4
  -5  -5   4 9.43590 2.29586   5
  -5  -5   4 14.8489 3.46569   1
   4   5  -4 63.8049 4.75875   3
   4   5  -4 61.1977 5.63560   5
   4   5  -4 63.6262 5.09553   4
   4   5  -4 56.7368 4.69612   5
  -4  -5   4 65.2473 4.09062   2
  -4  -5   4 52.9002 5.95573   5
  -4  -5   4 66.3750 4.49214   1
  -4  -5   4 56.0259 5.94542   5
   3   5  -4 36.1874 3.94650   4
   3   5  -4 36.2843 3.82002   3
   3   5  -4 36.1959 4.38631   5
   3   5  -4 42.8398 3.82500   1
   3   5  -4 33.3410 3.56938   5
  -3  -5   4 39.2138 3.43449   1
  -3  -5   4 40.9683 2.76870   2
  -3  -5   4 42.6150 4.33382   5
  -3  -5   4 36.6518 3.69610   5
  -3  -5   4 34.4810 2.53904   2
   2   5  -4 184.910 7.53097   3
   2   5  -4 187.885 7.36862   5
   2   5  -4 199.609 7.43875   1
   2   5  -4 188.564 7.70976   4
   2   5  -4 189.425 7.55462   5
  -2  -5   4 177.699 7.09799   1
  -2  -5   4 189.032 5.61238   2
  -2  -5   4 187.125 8.07858   4
  -2  -5   4 187.266 7.39199   5
  -2  -5   4 186.837 5.59767   2
  -2  -5   4 175.677 7.17210   5
   1   5  -4 232.554 8.48830   5
   1   5  -4 230.006 8.74889   3
   1   5  -4 239.862 8.22610   1
   1   5  -4 233.173 8.53007   4
   1   5  -4 237.948 8.33507   5
  -1  -5   4 238.467 8.35056   5
  -1  -5   4 228.349 6.61100   2
  -1  -5   4 240.785 8.88890   3
  -1  -5   4 233.882 8.20086   1
  -1  -5   4 230.987 6.64220   2
  -1  -5   4 232.961 8.17099   5
  -1  -5   4 240.894 8.67190   4
   0   5  -4 15.4827 2.28210   4
   0   5  -4 15.7225 2.44236   5
   0   5  -4 10.5946 2.41722   3
   0   5  -4 10.4411 2.51889   1
   0   5  -4 11.2888 2.22707   5
   0   5  -4 14.1964 1.75842   2
   0  -5   4 12.3855 2.02041   1
   0  -5   4 14.7040 2.30696   5
   0  -5   4 10.2675 2.88331   3
   0  -5   4 13.8297 1.68550   2
   0  -5   4 15.2174 2.82216   4
   0  -5   4 16.6006 2.48973   5
  -1   5  -4 3.81716 1.50312   3
  -1   5  -4 2.10484 0.93761   5
  -1   5  -4 2.97288 1.14277   2
  -1   5  -4 7.19744 2.39075   5
  -1   5  -4 7.53815 1.90702   4
  -1   5  -4 2.66585 1.53714   1
   1  -5   4 2.73138 1.29430   5
   1  -5   4 2.30504 1.80906   3
   1  -5   4 6.74648 2.13946   4
   1  -5   4 2.52664 1.09773   2
   1  -5   4 2.07766 1.19276   5
  -2   5  -4 407.532 12.0701   2
  -2   5  -4 398.896 12.1397   5
  -2   5  -4 402.017 12.9946   3
  -2   5  -4 390.234 12.5700   1
  -2   5  -4 406.920 12.6282   1
   2  -5   4 404.599 11.9081   2
   2  -5   4 386.670 12.8726   3
   2  -5   4 360.990 11.5642   5
   2  -5   4 332.222 14.0886   5
  -3   5  -4 200.993 7.66748   5
  -3   5  -4 200.807 8.15494   1
  -3   5  -4 198.542 8.21848   2
  -3   5  -4 204.541 8.42342   3
  -3   5  -4 193.716 8.03424   5
   3  -5   4 192.429 7.59065   5
   3  -5   4 204.549 7.99521   2
  -4   5  -4 1.43089 1.68032   5
  -4   5  -4 1.02850 1.41181   5
  -4   5  -4 0.00724 1.97011   3
  -4   5  -4 0.76651 1.68430   1
   4  -5   4 -1.0774 1.78451   5
   4  -5   4 1.92081 1.75306   2
  -5   5  -4 27.3580 4.22215   3
  -5   5  -4 28.2685 5.54081   5
  -5   5  -4 25.9092 4.51088   1
  -5   5  -4 28.4406 4.16143   5
   5  -5   4 27.7186 4.99514   2
   5  -5   4 34.7700 4.41302   5
  -6   5  -4 39.9772 5.08273   3
  -6   5  -4 39.2596 4.85865   5
  -6   5  -4 46.3778 5.85758   1
   6  -5   4 45.9154 6.02771   2
  -7   5  -4 112.365 8.19415   3
  -7   5  -4 119.403 7.83234   5
  -7   5  -4 115.670 8.88110   1
   7  -5   4 119.616 9.48660   2
  -8   5  -4 2.79869 3.83728   3
  -8   5  -4 -0.8449 3.07377   1
   8  -5   4 7.97877 4.66489   2
   8   4  -4 38.3001 8.66637   2
  -8  -4   4 29.9977 9.19845   5
  -8  -4   4 27.3999 6.94284   1
   7   4  -4 20.8092 3.77967   5
   7   4  -4 30.3676 6.31419   4
  -7  -4   4 30.4410 7.06561   5
  -7  -4   4 33.8301 5.57915   1
   6   4  -4 77.9306 6.00598   2
   6   4  -4 71.8944 6.33090   5
   6   4  -4 76.9755 6.65981   4
   6   4  -4 78.3609 4.95319   3
   6   4  -4 69.8746 4.46428   3
  -6  -4   4 76.8695 5.62174   1
  -6  -4   4 71.4216 6.31915   5
   5   4  -4 30.3585 4.64010   4
   5   4  -4 26.4252 4.32364   5
   5   4  -4 18.0953 5.55257   5
   5   4  -4 27.3577 4.00525   3
   5   4  -4 33.1806 3.54696   3
   5   4  -4 26.4633 3.78580   2
  -5  -4   4 30.2126 5.25868   5
  -5  -4   4 25.1238 4.56549   2
  -5  -4   4 30.7796 4.57795   5
  -5  -4   4 31.7877 3.90026   1
   4   4  -4 13.4275 3.63150   5
   4   4  -4 20.1218 3.79104   5
   4   4  -4 18.7915 2.94920   3
   4   4  -4 22.5799 4.03242   4
   4   4  -4 12.8018 2.48839   1
   4   4  -4 20.0501 2.68948   2
  -4  -4   4 15.3166 2.67065   1
  -4  -4   4 21.2645 3.99640   5
  -4  -4   4 25.0625 3.41606   2
  -4  -4   4 12.5981 3.35883   5
   3   4  -4 367.001 12.6975   4
   3   4  -4 365.341 11.9051   5
   3   4  -4 385.260 11.7930   1
   3   4  -4 357.044 11.8706   5
   3   4  -4 373.370 11.6104   3
  -3  -4   4 376.073 12.0860   5
  -3  -4   4 361.269 12.4849   4
  -3  -4   4 363.403 11.9834   5
  -3  -4   4 374.891 11.7046   1
  -3  -4   4 362.258 10.7711   2
   2   4  -4 69.1040 4.33104   4
   2   4  -4 67.9884 3.99322   3
   2   4  -4 67.7729 3.83116   1
   2   4  -4 67.2520 3.90823   5
   2   4  -4 63.2212 3.82393   5
  -2  -4   4 65.7263 3.01809   2
  -2  -4   4 65.6143 4.00865   3
  -2  -4   4 67.3104 3.05197   2
  -2  -4   4 70.7424 3.75047   1
  -2  -4   4 70.9550 3.89916   5
  -2  -4   4 67.5318 4.62280   4
  -2  -4   4 64.2319 3.80646   5
   1   4  -4 85.0834 4.45929   3
   1   4  -4 85.8430 4.36065   4
   1   4  -4 91.8675 4.17183   1
   1   4  -4 84.8980 4.25547   5
   1   4  -4 85.0077 4.39829   5
  -1  -4   4 82.8628 3.96902   1
  -1  -4   4 95.4297 4.61223   4
  -1  -4   4 87.4023 4.56186   3
  -1  -4   4 86.0636 4.32496   5
  -1  -4   4 85.0753 3.31534   2
  -1  -4   4 89.3355 4.28843   5
  -1  -4   4 87.6372 3.34393   2
   0   4  -4 15.7626 2.15455   5
   0   4  -4 12.0379 1.65658   2
   0   4  -4 14.3860 2.08052   3
   0   4  -4 12.4920 1.90213   4
   0   4  -4 15.0533 2.06628   1
   0   4  -4 11.8217 1.97598   5
   0  -4   4 13.8523 2.48941   3
   0  -4   4 12.0044 1.59460   2
   0  -4   4 13.4639 2.05705   5
   0  -4   4 17.6460 2.39149   4
   0  -4   4 12.5362 2.14376   5
   0  -4   4 13.5255 1.85468   1
  -1   4  -4 239.273 7.47544   4
  -1   4  -4 241.463 7.77329   2
  -1   4  -4 231.989 8.60337   3
  -1   4  -4 242.142 8.26852   1
  -1   4  -4 240.503 8.12095   5
  -1   4  -4 247.007 8.31376   5
   1  -4   4 244.809 7.89783   5
   1  -4   4 248.353 8.24951   5
   1  -4   4 248.390 8.67158   3
   1  -4   4 252.692 7.60065   4
   1  -4   4 243.399 7.72029   2
  -2   4  -4 36.5558 2.97911   1
  -2   4  -4 28.0324 2.74195   5
  -2   4  -4 28.7149 3.01666   3
  -2   4  -4 33.6963 2.83405   1
  -2   4  -4 32.8019 2.97678   2
  -2   4  -4 30.0529 1.72273   4
  -2   4  -4 33.0785 2.82208   5
   2  -4   4 33.4234 1.90709   4
   2  -4   4 29.0588 2.97535   5
   2  -4   4 26.1038 3.22279   3
   2  -4   4 22.1661 2.65605   5
   2  -4   4 30.4596 2.91399   2
  -3   4  -4 317.439 10.7319   5
  -3   4  -4 320.952 11.0361   3
  -3   4  -4 323.769 10.8504   1
  -3   4  -4 328.831 10.5285   5
  -3   4  -4 328.578 10.9428   2
   3  -4   4 318.154 11.0409   3
   3  -4   4 323.803 10.4691   5
   3  -4   4 294.094 9.98793   5
   3  -4   4 319.533 10.7418   2
  -4   4  -4 7.96517 2.45148   2
  -4   4  -4 10.3328 2.78032   5
  -4   4  -4 19.1056 3.14098   3
  -4   4  -4 21.1045 3.72835   5
  -4   4  -4 13.4675 3.13295   1
   4  -4   4 11.2085 2.69428   3
   4  -4   4 15.6287 3.32391   2
  -5   4  -4 4.93811 1.80361   5
  -5   4  -4 -1.0983 1.47559   1
  -5   4  -4 2.22375 1.98522   3
  -5   4  -4 1.70821 2.20330   5
   5  -4   4 -0.7027 1.68697   2
   5  -4   4 0.98185 2.02909   5
  -6   4  -4 37.7563 5.01874   5
  -6   4  -4 34.0074 4.39793   3
  -6   4  -4 36.0730 6.73556   5
  -6   4  -4 49.9354 5.68953   1
   6  -4   4 45.7971 5.84846   2
   6  -4   4 35.4831 4.99453   5
  -7   4  -4 6.67373 2.99054   5
  -7   4  -4 6.29433 2.82057   1
  -7   4  -4 17.6946 5.09903   3
   7  -4   4 17.5950 6.10525   2
  -8   4  -4 25.0162 7.62862   5
  -8   4  -4 28.4692 6.90167   1
  -8   4  -4 22.4328 6.28263   3
   8  -4   4 27.6492 8.01947   2
   9   3  -4 -0.8348 5.06342   2
   9   3  -4 28.5682 9.31970   4
  -9  -3   4 4.34920 4.96745   5
  -8  -3   4 -1.6239 3.59653   5
  -8  -3   4 -2.9571 2.49342   1
   7   3  -4 5.40488 2.88161   5
   7   3  -4 1.01914 2.53528   4
   7   3  -4 3.66090 2.90022   2
  -7  -3   4 1.59664 3.10523   5
  -7  -3   4 3.35881 2.12507   1
   6   3  -4 16.0073 4.31051   2
   6   3  -4 16.1029 2.43644   3
   6   3  -4 18.1310 4.55003   5
   6   3  -4 16.9710 2.71204   3
   6   3  -4 18.1348 4.52455   4
  -6  -3   4 10.0772 3.42596   1
  -6  -3   4 15.0632 4.20274   5
   5   3  -4 71.8674 3.88594   3
   5   3  -4 71.4434 5.67917   4
   5   3  -4 67.7585 4.73920   5
   5   3  -4 79.2817 5.12906   2
  -5  -3   4 68.1451 4.68376   1
  -5  -3   4 72.1978 5.62156   2
  -5  -3   4 67.4242 5.75210   5
  -5  -3   4 75.4180 5.49878   5
   4   3  -4 601.932 16.2243   3
   4   3  -4 588.212 16.9136   2
   4   3  -4 577.327 18.1682   4
   4   3  -4 579.765 17.1924   5
   4   3  -4 584.604 17.3066   5
   4   3  -4 580.292 16.1675   3
   4   3  -4 579.877 17.1174   1
  -4  -3   4 597.862 17.6685   5
  -4  -3   4 559.642 16.9333   1
  -4  -3   4 587.457 16.9668   2
  -4  -3   4 582.908 17.4573   5
   3   3  -4 10.0086 2.42652   5
   3   3  -4 10.4074 2.37650   4
   3   3  -4 10.4273 2.52815   1
   3   3  -4 7.42978 1.53563   5
   3   3  -4 10.1379 2.09605   3
  -3  -3   4 10.2040 2.20601   5
  -3  -3   4 12.9358 2.34597   2
  -3  -3   4 15.9639 2.74823   5
  -3  -3   4 8.95440 1.94109   1
  -3  -3   4 9.21866 2.92876   4
   2   3  -4 181.306 6.51460   3
   2   3  -4 183.471 6.85948   5
   2   3  -4 177.366 7.09923   4
   2   3  -4 188.286 6.45953   1
   2   3  -4 181.587 6.63958   5
  -2  -3   4 191.031 6.80787   5
  -2  -3   4 184.513 6.39763   1
  -2  -3   4 184.950 6.12445   2
  -2  -3   4 187.058 7.19547   4
  -2  -3   4 184.651 6.59831   3
  -2  -3   4 186.506 6.87715   5
   1   3  -4 123.938 4.64570   1
   1   3  -4 117.136 4.93292   3
   1   3  -4 120.896 5.18657   4
   1   3  -4 123.565 4.98917   5
   1   3  -4 126.212 5.04989   5
  -1  -3   4 122.988 5.04778   5
  -1  -3   4 129.865 4.98386   5
  -1  -3   4 127.950 4.41452   2
  -1  -3   4 127.662 4.45655   2
  -1  -3   4 128.953 5.35766   4
  -1  -3   4 131.101 5.21953   3
   0   3  -4 194.414 6.41186   1
   0   3  -4 208.507 6.97053   5
   0   3  -4 194.767 6.76505   5
   0   3  -4 174.976 7.25806   4
   0   3  -4 200.082 6.27225   2
   0   3  -4 193.924 7.04273   3
   0  -3   4 200.257 6.59826   5
   0  -3   4 198.245 6.99059   3
   0  -3   4 192.267 6.20326   2
   0  -3   4 194.634 6.53290   1
   0  -3   4 204.317 6.74455   4
   0  -3   4 202.874 6.82363   5
  -1   3  -4 528.936 15.9347   3
  -1   3  -4 583.688 15.4087   1
  -1   3  -4 556.174 15.2789   2
  -1   3  -4 540.326 14.8918   4
  -1   3  -4 570.011 15.7500   5
   1  -3   4 549.489 15.2531   2
   1  -3   4 549.018 15.9378   3
   1  -3   4 552.778 15.5926   5
   1  -3   4 572.758 14.9947   4
   1  -3   4 558.879 15.3668   5
  -2   3  -4 493.531 14.3208   2
  -2   3  -4 504.900 14.4340   5
  -2   3  -4 480.543 12.9342   4
  -2   3  -4 494.508 14.1863   5
  -2   3  -4 480.192 14.7157   3
  -2   3  -4 488.249 14.1661   1
  -2   3  -4 497.858 14.1865   1
   2  -3   4 508.163 14.2971   5
   2  -3   4 491.706 14.0200   5
   2  -3   4 509.826 13.0018   4
   2  -3   4 494.772 14.3418   2
   2  -3   4 493.692 14.6597   3
  -3   3  -4 26.3059 2.81980   3
  -3   3  -4 23.4810 2.60862   1
  -3   3  -4 20.9576 2.50448   5
  -3   3  -4 27.3696 3.12691   2
  -3   3  -4 21.7834 2.94459   5
   3  -3   4 24.0839 3.09711   3
   3  -3   4 22.0434 2.64436   5
   3  -3   4 26.8265 3.06327   2
   3  -3   4 25.5568 2.86882   5
  -4   3  -4 -1.3313 1.67125   2
  -4   3  -4 -1.5835 1.24123   3
  -4   3  -4 -1.1036 1.51221   5
  -4   3  -4 -0.7240 1.21244   5
  -4   3  -4 -0.0153 1.36481   1
   4  -3   4 0.88668 1.38744   5
   4  -3   4 0.62554 1.37292   2
   4  -3   4 0.35772 1.36128   5
   4  -3   4 -0.3551 1.89346   3
  -5   3  -4 37.0250 3.94195   1
  -5   3  -4 37.7299 3.84511   3
  -5   3  -4 30.4778 3.67847   5
  -5   3  -4 31.4041 4.79851   5
   5  -3   4 43.6048 4.60590   3
   5  -3   4 34.9432 3.80835   5
   5  -3   4 29.9753 4.21040   2
  -6   3  -4 25.1143 4.38571   1
  -6   3  -4 28.3997 4.25454   3
  -6   3  -4 16.0901 3.83465   5
  -6   3  -4 18.5162 3.56666   5
   6  -3   4 19.7445 4.86499   2
   6  -3   4 24.6426 4.57482   5
  -7   3  -4 130.492 7.93495   5
  -7   3  -4 128.998 8.05811   1
  -7   3  -4 123.350 7.29136   3
   7  -3   4 118.498 8.59340   2
  -8   3  -4 -1.9226 2.79047   3
  -8   3  -4 -3.8677 2.50442   5
  -8   3  -4 -5.1875 2.48689   1
   8  -3   4 -2.1040 3.08505   2
  -9   3  -4 45.6329 8.96638   5
  -9   3  -4 52.0613 7.86812   1
   9   2  -4 49.5008 9.54712   4
   9   2  -4 30.5072 6.01571   2
  -9  -2   4 41.3739 9.22655   5
  -9  -2   4 35.5420 7.63108   1
   8   2  -4 5.54169 3.36155   4
   8   2  -4 4.46380 3.85053   2
  -8  -2   4 4.17915 2.99806   1
  -8  -2   4 6.81617 3.10506   5
   7   2  -4 37.3677 5.96366   4
   7   2  -4 29.3842 6.14976   2
   7   2  -4 29.2494 5.64332   5
  -7  -2   4 33.4048 5.90162   5
  -7  -2   4 23.2380 4.61264   1
   6   2  -4 191.595 8.47837   5
   6   2  -4 203.825 9.25698   2
   6   2  -4 181.927 8.96344   4
  -6  -2   4 178.045 9.40363   5
  -6  -2   4 186.885 8.41919   1
  -6  -2   4 198.285 8.93191   5
   5   2  -4 441.390 14.2020   2
   5   2  -4 431.875 14.8378   4
   5   2  -4 402.568 13.7984   1
   5   2  -4 412.905 11.4903   3
   5   2  -4 435.140 13.7056   5
  -5  -2   4 403.352 14.0698   2
  -5  -2   4 489.408 14.2414   1
  -5  -2   4 423.164 14.2319   5
  -5  -2   4 442.363 14.2677   5
   4   2  -4 5.18212 1.16086   3
   4   2  -4 4.04003 1.64510   1
   4   2  -4 2.16759 1.31931   5
   4   2  -4 4.13071 1.40427   2
   4   2  -4 5.64473 1.61560   3
   4   2  -4 4.03695 1.57841   4
   4   2  -4 9.76464 2.95694   5
  -4  -2   4 0.69475 1.54081   5
  -4  -2   4 2.26178 1.73394   2
  -4  -2   4 3.62435 1.39213   5
  -4  -2   4 6.96718 2.03445   1
  -4  -2   4 3.20417 1.55397   4
   3   2  -4 5.31586 1.43380   5
   3   2  -4 7.88770 1.77259   2
   3   2  -4 4.88449 1.26016   5
   3   2  -4 3.95323 1.08544   3
   3   2  -4 4.47006 1.39660   4
  -3  -2   4 3.41260 1.40500   5
  -3  -2   4 5.80210 1.46739   1
  -3  -2   4 3.62007 1.31921   5
  -3  -2   4 7.30610 2.29826   2
  -3  -2   4 8.21236 2.67228   4
   2   2  -4 64.4780 3.50949   5
   2   2  -4 64.8221 3.07046   1
   2   2  -4 61.6927 3.29814   5
   2   2  -4 60.8081 3.05479   3
   2   2  -4 59.5713 3.60034   4
  -2  -2   4 64.1405 3.53396   5
  -2  -2   4 62.4739 3.27366   2
  -2  -2   4 62.0959 3.14110   3
  -2  -2   4 61.8459 3.47411   5
  -2  -2   4 68.6568 3.06759   1
   1   2  -4 617.347 16.1391   5
   1   2  -4 570.778 16.2592   4
   1   2  -4 577.235 15.8398   5
   1   2  -4 532.963 15.1924   1
  -1  -2   4 513.328 15.4190   2
  -1  -2   4 612.917 16.3488   4
  -1  -2   4 597.981 16.1546   5
  -1  -2   4 605.024 15.9712   5
  -1  -2   4 558.357 15.2775   1
  -1  -2   4 595.097 15.6487   2
  -1  -2   4 597.289 15.9082   3
   0   2  -4 704.527 19.5798   3
   0   2  -4 718.326 19.3402   5
   0   2  -4 726.394 19.4598   4
   0   2  -4 745.788 19.6080   5
   0   2  -4 746.050 19.1869   2
   0   2  -4 713.878 18.7995   1
   0  -2   4 721.949 18.8176   1
   0  -2   4 732.896 19.5054   5
   0  -2   4 723.365 19.3798   4
   0  -2   4 733.850 19.1665   2
   0  -2   4 744.716 19.6465   3
  -1   2  -4 23.5078 1.81718   4
  -1   2  -4 21.4057 1.79397   1
  -1   2  -4 26.9648 2.17999   2
  -1   2  -4 25.7248 2.05950   5
  -1   2  -4 28.3250 2.09386   5
  -1   2  -4 26.3945 2.37198   3
   1  -2   4 27.0454 2.03856   5
   1  -2   4 25.4306 2.17408   2
   1  -2   4 26.8828 2.29664   3
   1  -2   4 29.6886 2.30463   5
   1  -2   4 29.4289 1.92528   4
  -2   2  -4 88.5704 4.16649   2
  -2   2  -4 92.8151 4.35134   3
  -2   2  -4 92.2304 4.67274   5
  -2   2  -4 93.4080 4.21106   5
  -2   2  -4 89.3360 3.31230   4
  -2   2  -4 83.1544 4.37991   1
   2  -2   4 90.4578 4.26774   3
   2  -2   4 91.9573 3.91729   5
   2  -2   4 92.0017 4.15145   5
   2  -2   4 90.2479 4.18284   2
   2  -2   4 92.4707 3.34426   4
  -3   2  -4 10.7157 2.27936   5
  -3   2  -4 8.96406 1.75504   1
  -3   2  -4 11.9130 2.14095   5
  -3   2  -4 10.9268 2.81149   2
  -3   2  -4 11.1845 2.16896   3
   3  -2   4 10.7081 2.21078   2
   3  -2   4 9.53084 1.29908   4
   3  -2   4 10.6595 2.13162   5
   3  -2   4 13.4133 2.40899   3
   3  -2   4 11.3694 2.06211   5
   3  -2   4 9.00987 1.16276   4
  -4   2  -4 40.0788 3.92249   2
  -4   2  -4 39.8406 3.93095   5
  -4   2  -4 43.4743 3.40204   1
  -4   2  -4 40.9726 3.28007   5
  -4   2  -4 42.2682 3.30970   3
   4  -2   4 39.4099 3.56447   1
   4  -2   4 39.9401 3.67807   2
   4  -2   4 41.3126 3.60678   5
   4  -2   4 48.3485 3.76395   3
   4  -2   4 41.9035 3.56002   5
  -5   2  -4 38.7588 4.59335   5
  -5   2  -4 42.5760 4.20210   1
  -5   2  -4 40.5086 3.63062   3
  -5   2  -4 38.9835 3.67140   5
   5  -2   4 35.1444 4.32368   3
   5  -2   4 40.9612 2.28612   4
   5  -2   4 39.1186 4.01100   2
   5  -2   4 40.5104 3.72382   5
  -6   2  -4 31.8866 3.94035   1
  -6   2  -4 30.2750 3.79284   3
  -6   2  -4 33.8647 3.99358   5
  -6   2  -4 37.6758 5.47117   5
   6  -2   4 31.8027 4.13257   5
   6  -2   4 27.4044 5.05115   3
   6  -2   4 30.0142 4.89529   2
  -7   2  -4 3.17391 2.42510   5
  -7   2  -4 5.13937 2.35702   3
  -7   2  -4 3.30092 4.24424   5
  -7   2  -4 3.80930 2.34666   1
   7  -2   4 4.73643 2.53985   2
   7  -2   4 5.13814 2.68045   5
  -8   2  -4 1.35337 2.51562   3
  -8   2  -4 2.17240 2.69709   1
  -8   2  -4 -0.9480 2.65391   5
   8  -2   4 2.03674 2.74195   2
  -9   2  -4 32.7430 6.83599   3
  -9   2  -4 26.9730 8.82052   5
   9  -2   4 33.0482 8.98106   2
   9   1  -4 9.29106 4.25674   4
   9   1  -4 9.78158 5.31402   2
  -9  -1   4 7.35835 3.72142   1
  -9  -1   4 1.21615 3.87614   5
   8   1  -4 4.51024 4.05266   2
   8   1  -4 4.55853 3.25086   4
  -8  -1   4 0.79312 2.52316   1
  -8  -1   4 -1.1552 3.10292   5
   7   1  -4 4.79141 2.50180   5
   7   1  -4 4.54093 2.86350   4
   7   1  -4 2.43722 2.53544   2
  -7  -1   4 1.84490 2.17364   5
  -7  -1   4 1.48976 2.00784   1
   6   1  -4 36.4222 4.72930   2
   6   1  -4 36.4393 4.18628   5
   6   1  -4 32.6664 4.53093   4
  -6  -1   4 28.7775 3.76634   1
  -6  -1   4 23.6683 5.31732   5
  -6  -1   4 26.5928 4.34945   5
   5   1  -4 120.384 6.52658   4
   5   1  -4 119.394 6.41151   2
   5   1  -4 98.4949 5.78012   1
   5   1  -4 116.143 5.58047   5
  -5  -1   4 107.177 5.78967   5
  -5  -1   4 105.453 5.56421   1
  -5  -1   4 139.834 8.62153   2
  -5  -1   4 106.990 6.09818   5
   4   1  -4 99.4037 5.43976   4
   4   1  -4 92.6231 4.85500   1
   4   1  -4 101.911 5.31321   2
   4   1  -4 97.8435 4.81798   5
   4   1  -4 102.494 4.83325   5
  -4  -1   4 100.580 5.23878   5
  -4  -1   4 101.142 5.10795   5
  -4  -1   4 104.068 4.69990   1
  -4  -1   4 98.8951 5.68364   4
  -4  -1   4 108.163 5.41665   2
   3   1  -4 208.540 7.03478   5
   3   1  -4 198.858 6.97876   5
   3   1  -4 210.060 6.96624   1
   3   1  -4 199.266 6.06611   3
   3   1  -4 202.941 7.40790   2
   3   1  -4 196.916 7.70048   4
  -3  -1   4 210.513 6.90572   1
  -3  -1   4 207.878 7.41130   2
  -3  -1   4 214.494 7.34578   5
  -3  -1   4 213.368 7.78572   4
  -3  -1   4 200.747 7.24053   5
   2   1  -4 20.8467 1.76428   1
   2   1  -4 21.9133 1.68873   3
   2   1  -4 23.3015 2.49783   4
   2   1  -4 22.9302 2.00314   5
   2   1  -4 24.7448 2.00428   5
  -2  -1   4 21.4735 2.20280   2
  -2  -1   4 19.2581 1.71692   3
  -2  -1   4 24.3435 2.54918   4
  -2  -1   4 20.8932 2.09881   5
  -2  -1   4 18.6259 1.64786   1
   1   1  -4 400.881 11.6549   3
   1   1  -4 411.738 11.7431   5
   1   1  -4 433.243 11.1113   1
   1   1  -4 412.114 12.2721   4
   1   1  -4 409.088 11.8327   5
  -1  -1   4 432.609 11.7660   3
  -1  -1   4 418.378 11.9224   2
  -1  -1   4 432.713 11.9467   2
  -1  -1   4 424.842 12.3450   4
  -1  -1   4 433.519 11.1498   1
   0   1  -4 242.764 7.41202   5
   0   1  -4 259.030 6.72454   1
   0   1  -4 233.418 7.57966   4
   0   1  -4 241.447 7.59302   3
   0  -1   4 234.597 7.51174   5
   0  -1   4 248.493 7.45397   5
   0  -1   4 249.225 7.62541   4
   0  -1   4 246.529 7.60665   3
   0  -1   4 241.825 7.53354   2
  -1   1  -4 14.1829 1.72160   3
  -1   1  -4 15.7140 1.53227   4
  -1   1  -4 16.5741 1.32207   1
  -1   1  -4 15.6361 1.77783   2
  -1   1  -4 14.2386 1.30578   1
  -1   1  -4 15.5134 1.65652   5
  -1   1  -4 15.4613 1.67050   5
   1  -1   4 22.6169 2.57406   5
   1  -1   4 16.0395 1.66270   4
   1  -1   4 14.3757 1.73711   5
   1  -1   4 15.2719 1.67642   3
   1  -1   4 15.5825 1.62308   2
  -2   1  -4 24.4552 2.33461   2
  -2   1  -4 22.5587 2.21925   3
  -2   1  -4 24.8871 1.79219   1
  -2   1  -4 23.2222 1.80028   4
  -2   1  -4 24.0860 2.20253   5
   2  -1   4 28.0732 2.17376   3
   2  -1   4 23.0520 2.10649   5
   2  -1   4 28.1395 2.44462   2
   2  -1   4 25.8548 1.78460   4
   2  -1   4 24.1162 2.26995   5
  -3   1  -4 50.9916 3.31112   3
  -3   1  -4 53.6310 3.09987   1
  -3   1  -4 54.4913 3.14018   5
   3  -1   4 56.9926 3.07586   1
   3  -1   4 50.0808 3.41419   2
   3  -1   4 53.8417 3.20521   5
   3  -1   4 56.9247 3.30961   3
   3  -1   4 53.6605 2.53406   4
   3  -1   4 53.4738 2.53383   4
   3  -1   4 50.2750 3.23069   5
  -4   1  -4 238.066 8.45669   3
  -4   1  -4 238.300 8.33109   5
  -4   1  -4 231.841 8.51139   5
  -4   1  -4 241.825 8.39326   1
  -4   1  -4 232.662 8.87420   2
   4  -1   4 234.594 8.36000   3
   4  -1   4 243.233 7.26623   4
   4  -1   4 234.296 7.20282   4
   4  -1   4 236.973 8.31019   1
   4  -1   4 235.046 8.26629   5
   4  -1   4 237.410 8.42303   5
   4  -1   4 241.312 8.98180   2
  -5   1  -4 227.818 8.95629   5
  -5   1  -4 224.796 8.70875   1
  -5   1  -4 224.644 8.52326   5
  -5   1  -4 234.974 8.54010   3
   5  -1   4 233.730 8.61656   3
   5  -1   4 214.916 8.88149   1
   5  -1   4 226.607 9.34023   2
   5  -1   4 234.790 7.32622   4
   5  -1   4 223.603 8.61518   5
   5  -1   4 243.272 7.44357   4
   5  -1   4 233.372 8.62606   5
  -6   1  -4 7.24711 2.16808   5
  -6   1  -4 15.0605 4.61962   5
  -6   1  -4 7.86630 2.15977   3
  -6   1  -4 7.00217 2.01614   1
   6  -1   4 3.47848 2.28224   2
   6  -1   4 7.51468 1.78826   4
   6  -1   4 8.63421 2.45071   3
   6  -1   4 5.18894 1.69354   5
  -7   1  -4 25.0104 6.46301   5
  -7   1  -4 30.2742 4.08217   3
  -7   1  -4 28.2185 4.73778   5
  -7   1  -4 34.3363 4.64510   1
   7  -1   4 27.1632 4.71330   5
   7  -1   4 23.3017 3.11655   4
   7  -1   4 19.8144 5.13247   2
   7  -1   4 37.8289 4.59241   4
  -8   1  -4 3.88659 2.96840   5
  -8   1  -4 -4.5909 2.27391   1
  -8   1  -4 0.95343 2.51117   3
   8  -1   4 7.28300 3.37753   2
   8  -1   4 2.08584 1.86152   4
  -9   1  -4 1.92913 3.18387   1
  -9   1  -4 3.33644 3.75450   5
  -9   1  -4 11.2864 4.13797   3
   9  -1   4 0.20846 3.28462   2
   9   0  -4 27.3257 8.82757   4
   9   0  -4 10.3964 5.37373   2
  -9   0   4 20.8492 7.07576   1
  -9   0   4 10.0922 4.96861   5
   8   0  -4 11.3823 3.76400   2
   8   0  -4 23.3923 7.06765   4
  -8   0   4 4.91026 2.83716   1
   7   0  -4 2.75486 2.23401   4
   7   0  -4 -0.3379 2.44276   2
  -7   0   4 0.00058 2.27031   5
  -7   0   4 0.94534 2.03464   1
   6   0  -4 23.2328 4.49700   4
   6   0  -4 19.6614 4.02800   5
   6   0  -4 22.1149 4.44264   2
  -6   0   4 23.9412 3.71160   1
  -6   0   4 19.6495 3.89200   5
  -6   0   4 27.7751 4.48956   5
   5   0  -4 81.1486 5.47969   1
   5   0  -4 83.1998 5.61367   2
   5   0  -4 83.3922 4.96658   5
   5   0  -4 77.6279 5.29426   4
  -5   0   4 80.7303 4.65135   1
  -5   0   4 90.1631 5.07484   5
  -5   0   4 80.8381 4.83128   5
   4   0  -4 81.1909 4.29460   1
   4   0  -4 76.6357 4.72085   4
   4   0  -4 74.4437 3.90488   5
   4   0  -4 82.1220 4.83184   2
  -4   0   4 69.9542 5.17794   4
  -4   0   4 79.8788 4.38098   5
  -4   0   4 82.7983 4.08455   1
  -4   0   4 79.7420 5.12970   2
  -4   0   4 82.2037 4.50686   5
   3   0  -4 12.8663 1.86585   1
   3   0  -4 12.6089 2.46084   4
   3   0  -4 12.9859 2.14839   2
   3   0  -4 14.1342 1.66648   5
  -3   0   4 10.8393 2.49169   4
  -3   0   4 10.8354 1.94102   5
  -3   0   4 15.0325 2.10972   5
  -3   0   4 13.0155 1.69995   1
  -3   0   4 9.46627 2.51283   2
   2   0  -4 12.8439 1.60301   5
   2   0  -4 11.1124 1.20189   3
   2   0  -4 11.4509 1.31960   1
   2   0  -4 11.6977 2.08290   4
  -2   0   4 10.8121 1.63377   5
  -2   0   4 14.0262 1.25821   3
  -2   0   4 13.6359 1.32426   1
  -2   0   4 9.42284 2.10776   4
  -2   0   4 11.0240 1.62501   5
  -2   0   4 11.5466 1.89733   2
   1   0  -4 1490.24 35.8613   1
   1   0  -4 1463.16 37.4445   4
   1   0  -4 1432.86 36.5381   3
   1   0  -4 1468.05 36.6363   5
  -1   0   4 1463.02 37.3337   4
  -1   0   4 1334.93 37.4887   5
  -1   0   4 1482.27 35.8332   1
  -1   0   4 1493.98 36.5432   3
  -1   0   4 1488.97 36.7448   5
  -1   0   4 1506.79 37.2064   2
   0   0  -4 337.395 9.68152   5
   0   0  -4 367.127 9.87208   5
   0   0  -4 326.621 9.89379   3
   0   0  -4 336.934 10.1857   4
   0   0   4 350.305 10.2097   2
   0   0   4 353.982 10.2383   4
   0   0   4 356.230 9.94766   5
   0   0   4 356.761 9.98124   3
   0   0   4 354.271 9.80285   5
  -1   0  -4 457.856 12.5037   5
  -1   0  -4 454.805 12.6398   4
  -1   0  -4 462.352 12.8244   2
  -1   0  -4 401.058 12.8693   3
  -1   0  -4 459.385 12.3589   5
  -1   0  -4 453.513 11.6333   1
   1   0   4 459.340 12.8337   2
   1   0   4 463.096 12.7934   3
   1   0   4 468.204 12.6204   5
   1   0   4 465.178 12.4364   5
  -2   0  -4 11.7551 1.59565   5
  -2   0  -4 12.4226 1.51740   5
  -2   0  -4 8.55231 1.74144   2
  -2   0  -4 10.2634 1.53136   3
  -2   0  -4 10.9849 1.28910   1
   2   0   4 12.1525 1.67527   5
   2   0   4 11.9295 1.70123   3
   2   0   4 11.3440 1.47708   5
   2   0   4 9.27178 1.35764   4
   2   0   4 12.5693 1.29917   1
   2   0   4 12.1144 1.81472   2
  -3   0  -4 89.2478 3.98796   5
  -3   0  -4 86.5288 4.12691   3
  -3   0  -4 91.5271 4.15811   5
  -3   0  -4 86.5953 3.80576   1
   3   0   4 86.7818 3.65738   4
   3   0   4 87.1518 3.85421   1
   3   0   4 87.5765 3.64144   4
   3   0   4 86.4770 4.46672   2
   3   0   4 89.6011 3.98098   5
   3   0   4 92.5094 4.17566   3
  -4   0  -4 2.60240 1.32427   5
  -4   0  -4 2.33474 1.25133   2
  -4   0  -4 1.52233 1.19605   5
  -4   0  -4 1.41923 0.93101   1
  -4   0  -4 1.59040 1.16044   3
   4   0   4 0.93746 1.17750   5
   4   0   4 1.87828 1.38191   3
   4   0   4 2.50885 1.13581   1
   4   0   4 3.22396 1.40133   2
   4   0   4 1.44677 0.81868   4
   4   0   4 1.09061 1.01317   4
   4   0   4 1.76484 1.26231   5
  -5   0  -4 7.52341 2.51556   5
  -5   0  -4 4.56147 2.63300   2
  -5   0  -4 9.01532 2.41087   3
  -5   0  -4 5.96695 2.05936   5
  -5   0  -4 12.1145 2.51965   1
   5   0   4 8.48441 2.13600   5
   5   0   4 9.06303 2.65174   3
   5   0   4 7.72935 1.87326   2
   5   0   4 13.2387 3.28546   1
   5   0   4 8.03808 1.99089   4
   5   0   4 10.1383 2.66303   5
  -6   0  -4 -2.5817 2.24985   5
  -6   0  -4 0.23699 1.38635   3
  -6   0  -4 0.20779 1.76956   5
  -6   0  -4 0.74342 1.37406   1
   6   0   4 1.21346 1.27548   4
   6   0   4 1.55145 1.66641   2
   6   0   4 0.45966 1.85549   3
   6   0   4 1.04427 2.38331   5
   6   0   4 -0.1287 1.51764   5
  -7   0  -4 39.4837 5.00776   5
  -7   0  -4 32.1169 4.26430   1
  -7   0  -4 35.7761 4.25095   3
  -7   0  -4 39.8524 6.66520   5
   7   0   4 29.0101 3.78949   4
   7   0   4 31.1064 5.48115   2
  -8   0  -4 -2.2212 2.10035   1
  -8   0  -4 -1.0016 2.37638   3
  -8   0  -4 2.39756 2.81646   5
   8   0   4 -3.4621 1.78835   4
   8   0   4 0.58263 2.57488   2
  -9   0  -4 -4.5778 3.22378   5
  -9   0  -4 -3.0946 2.97176   1
  -9   0  -4 1.61580 3.29990   3
   9   0   4 -0.6659 2.66754   4
   9   0   4 0.02515 3.45561   2
   9  -1  -4 9.80951 4.67385   4
   9  -1  -4 6.91734 5.47472   2
  -9   1   4 3.45668 3.81030   1
  -9   1   4 -7.7416 4.07979   5
   8  -1  -4 0.81520 3.01225   4
   8  -1  -4 5.56913 3.72108   2
  -8   1   4 5.57311 3.19315   5
  -8   1   4 5.98996 2.92052   1
   7  -1  -4 19.3562 5.19759   4
   7  -1  -4 20.1061 5.78681   2
  -7   1   4 35.5095 5.11560   5
  -7   1   4 23.5433 5.05124   1
   6  -1  -4 22.6123 4.34072   4
   6  -1  -4 17.2822 4.53051   2
   6  -1  -4 33.4463 3.90956   5
  -6   1   4 19.3184 4.83195   5
  -6   1   4 25.2781 3.80503   1
  -6   1   4 28.7641 4.09443   5
   5  -1  -4 77.8991 4.27564   5
   5  -1  -4 75.2031 5.40372   2
   5  -1  -4 72.7835 5.24359   4
   5  -1  -4 71.0671 5.25427   1
  -5   1   4 75.0920 4.57990   5
  -5   1   4 74.0234 4.52443   1
  -5   1   4 69.3541 4.87139   5
  -5   1   4 77.5511 7.48248   4
   4  -1  -4 0.76299 1.34046   1
   4  -1  -4 2.02392 1.25738   4
   4  -1  -4 1.37406 0.89052   5
   4  -1  -4 1.54841 1.02778   5
   4  -1  -4 2.75959 1.35391   2
  -4   1   4 0.78644 0.99392   1
  -4   1   4 1.48784 1.64937   4
  -4   1   4 0.45611 1.73276   2
  -4   1   4 1.16147 0.90752   5
  -4   1   4 1.60167 1.03936   5
   3  -1  -4 29.2396 2.16825   5
   3  -1  -4 27.8393 2.88193   2
   3  -1  -4 29.6777 2.01023   5
   3  -1  -4 30.3087 2.48308   1
   3  -1  -4 27.4280 2.86903   4
  -3   1   4 27.1095 2.19551   1
  -3   1   4 28.1480 2.22146   5
  -3   1   4 28.7209 2.49736   5
  -3   1   4 25.2458 3.02080   2
  -3   1   4 27.1826 2.84476   4
   2  -1  -4 -0.1697 0.74278   2
   2  -1  -4 0.00974 0.51238   3
   2  -1  -4 1.14583 0.87010   4
   2  -1  -4 -0.0850 0.56296   5
   2  -1  -4 0.52542 0.55385   1
   2  -1  -4 -0.1619 0.56960   5
  -2   1   4 0.84160 0.55394   3
  -2   1   4 -0.0556 0.64399   5
  -2   1   4 -0.9506 0.79470   2
  -2   1   4 -0.3487 0.57587   1
  -2   1   4 -0.0554 0.85049   4
  -2   1   4 -0.2458 0.54410   5
   1  -1  -4 214.696 6.47151   3
   1  -1  -4 221.609 6.33099   5
   1  -1  -4 214.987 5.88637   1
   1  -1  -4 215.815 7.31205   4
   1  -1  -4 218.980 6.35923   5
  -1   1   4 224.301 6.51561   3
  -1   1   4 223.553 7.23744   2
  -1   1   4 214.152 6.51591   5
  -1   1   4 222.358 5.91824   1
  -1   1   4 218.080 7.26926   4
  -1   1   4 217.193 6.61955   5
   0  -1  -4 1117.73 27.3678   5
   0  -1  -4 1082.75 27.7861   3
   0  -1  -4 1077.70 28.2894   4
   0  -1  -4 1107.27 27.2536   5
   0   1   4 1101.04 27.5633   5
   0   1   4 1118.77 28.2336   4
   0   1   4 1071.10 28.2416   2
   0   1   4 1033.19 27.7318   3
   0   1   4 1099.21 27.4273   5
  -1  -1  -4 158.771 4.34360   1
  -1  -1  -4 155.471 5.49511   4
  -1  -1  -4 162.558 5.07688   5
  -1  -1  -4 164.238 5.68242   2
  -1  -1  -4 153.833 5.45065   3
   1   1   4 154.714 4.99490   5
   1   1   4 148.027 6.36558   2
   1   1   4 165.752 5.53302   3
   1   1   4 157.739 5.17813   5
   1   1   4 156.253 5.46873   4
   1   1   4 157.046 4.33171   1
  -2  -1  -4 1.49716 0.82363   3
  -2  -1  -4 1.55943 0.83048   2
  -2  -1  -4 1.50872 0.53436   1
  -2  -1  -4 3.31474 1.06831   5
  -2  -1  -4 1.37460 0.70692   5
   2   1   4 1.38089 0.56780   1
   2   1   4 0.84712 0.70155   2
   2   1   4 1.63199 0.71465   4
   2   1   4 2.88787 0.96714   3
   2   1   4 1.28774 0.68417   5
   2   1   4 0.49049 0.64149   5
  -3  -1  -4 20.9024 2.18399   3
  -3  -1  -4 22.5509 2.04017   5
  -3  -1  -4 21.8080 2.33067   5
   3   1   4 20.6438 2.05341   4
   3   1   4 21.4040 2.40446   2
   3   1   4 22.2149 2.01602   1
   3   1   4 21.2307 2.25240   5
   3   1   4 15.4282 2.41791   5
   3   1   4 24.4223 2.39157   3
  -4  -1  -4 2.22247 1.12863   5
  -4  -1  -4 1.02122 0.87109   1
  -4  -1  -4 2.74048 1.01714   5
  -4  -1  -4 1.15616 1.19032   3
  -4  -1  -4 2.89740 1.37245   2
   4   1   4 2.00440 1.08267   1
   4   1   4 1.94352 1.41591   5
   4   1   4 2.48930 1.12561   2
   4   1   4 1.10887 1.32189   5
   4   1   4 3.50722 1.55682   3
   4   1   4 2.61681 0.93273   4
  -5  -1  -4 4.70172 1.49472   1
  -5  -1  -4 2.54350 1.68666   5
  -5  -1  -4 10.7052 3.30701   2
  -5  -1  -4 6.50725 2.18878   3
   5   1   4 2.83438 1.29216   4
   5   1   4 4.11000 1.76255   5
   5   1   4 4.59314 1.72184   1
   5   1   4 3.72954 1.62111   2
   5   1   4 5.83028 1.85742   3
   5   1   4 4.33923 1.57728   5
  -6  -1  -4 90.5180 6.33022   5
  -6  -1  -4 87.0573 5.07142   3
  -6  -1  -4 90.9891 5.39249   5
  -6  -1  -4 85.5377 5.17771   1
   6   1   4 87.8149 4.83325   4
   6   1   4 80.5972 6.51164   5
   6   1   4 79.6986 5.77954   2
   6   1   4 76.1712 5.28405   3
   6   1   4 89.7214 5.71565   5
  -7  -1  -4 45.7004 7.61063   5
  -7  -1  -4 52.8339 4.77067   3
  -7  -1  -4 49.7252 5.56511   5
  -7  -1  -4 53.4125 5.33958   1
   7   1   4 48.4781 4.54968   4
   7   1   4 46.8957 5.43115   5
   7   1   4 50.1381 5.99996   2
  -8  -1  -4 -0.9894 2.36082   3
  -8  -1  -4 -0.5454 2.39825   1
  -8  -1  -4 -0.7665 2.53252   5
   8   1   4 -0.0942 2.77053   5
   8   1   4 -1.4640 1.95914   4
   8   1   4 1.84398 3.01413   2
  -9  -1  -4 1.43379 2.85334   3
  -9  -1  -4 -4.2730 3.20117   5
  -9  -1  -4 2.00470 3.07371   1
   9   1   4 3.58863 2.89653   4
   8  -2  -4 2.46944 3.50654   4
   8  -2  -4 5.62773 3.91574   2
  -8   2   4 6.62970 3.22372   5
  -8   2   4 -1.6526 2.66183   1
   7  -2  -4 -1.2809 2.69339   2
   7  -2  -4 1.54654 2.23919   4
  -7   2   4 4.65487 2.49263   5
  -7   2   4 2.23072 1.93618   1
   6  -2  -4 2.34924 2.33383   2
   6  -2  -4 10.9201 3.93441   4
   6  -2  -4 4.64037 1.62928   5
  -6   2   4 -0.1200 1.51487   1
  -6   2   4 1.94914 2.03795   5
  -6   2   4 2.42646 1.72775   5
   5  -2  -4 50.6767 4.90791   2
   5  -2  -4 59.2261 4.69633   4
   5  -2  -4 50.1353 3.55124   5
   5  -2  -4 40.6464 5.15566   1
  -5   2   4 50.1798 3.78381   5
  -5   2   4 41.7754 5.54833   4
  -5   2   4 49.2002 4.01722   5
  -5   2   4 56.6916 4.12134   1
   4  -2  -4 177.089 7.00175   1
   4  -2  -4 177.550 5.88529   5
   4  -2  -4 178.704 7.85444   2
   4  -2  -4 166.081 5.81216   5
   4  -2  -4 183.130 7.38974   4
  -4   2   4 166.227 7.41614   4
  -4   2   4 163.216 7.71289   2
  -4   2   4 169.950 6.55181   5
  -4   2   4 175.316 6.54556   5
  -4   2   4 183.355 6.89080   1
   3  -2  -4 7.80985 2.31085   4
   3  -2  -4 6.03085 1.28496   5
   3  -2  -4 4.44130 1.43802   2
   3  -2  -4 6.89659 1.38887   5
   3  -2  -4 4.54410 1.25860   1
  -3   2   4 6.26496 1.59986   2
  -3   2   4 5.49731 1.55019   5
  -3   2   4 6.67101 1.55905   1
  -3   2   4 7.24967 2.14272   4
  -3   2   4 8.39880 1.61410   5
   2  -2  -4 301.343 7.86385   5
   2  -2  -4 277.629 9.39624   4
   2  -2  -4 285.436 7.84880   5
   2  -2  -4 292.162 7.99014   3
   2  -2  -4 295.253 9.66332   2
   2  -2  -4 252.253 8.25685   1
  -2   2   4 302.389 8.01187   3
  -2   2   4 288.366 8.45013   5
  -2   2   4 291.596 8.46254   1
  -2   2   4 293.378 8.41209   5
  -2   2   4 312.347 9.67381   2
  -2   2   4 300.029 9.49648   4
   1  -2  -4 132.208 3.87303   5
   1  -2  -4 133.012 5.33217   4
   1  -2  -4 134.624 4.51589   3
   1  -2  -4 137.074 3.87303   5
  -1   2   4 136.987 4.31275   5
  -1   2   4 135.392 4.49858   3
  -1   2   4 133.100 5.16973   4
  -1   2   4 129.958 4.34462   5
  -1   2   4 137.910 5.33349   2
  -1   2   4 133.920 4.12936   1
   0  -2  -4 556.631 14.0976   5
   0  -2  -4 558.467 14.1286   5
   0  -2  -4 550.192 15.0564   3
   0   2   4 549.497 14.4002   5
   0   2   4 577.425 13.9466   1
   0   2   4 561.717 15.5156   4
   0   2   4 547.631 14.9839   3
  -1  -2  -4 95.4002 3.00217   1
  -1  -2  -4 98.6144 3.29441   5
  -1  -2  -4 95.0041 3.30441   5
  -1  -2  -4 95.6207 3.97037   2
  -1  -2  -4 81.4241 4.38521   3
   1   2   4 98.5193 3.43265   5
   1   2   4 97.1828 3.92096   3
   1   2   4 97.0101 3.02000   1
   1   2   4 95.8177 4.09893   4
  -2  -2  -4 466.062 12.6578   1
  -2  -2  -4 491.986 13.7009   2
  -2  -2  -4 485.727 12.9178   5
  -2  -2  -4 461.190 13.6073   3
   2   2   4 475.565 13.4840   4
   2   2   4 462.275 12.8690   5
   2   2   4 468.604 13.6232   2
   2   2   4 473.546 13.1237   5
   2   2   4 477.009 13.5606   3
   2   2   4 476.648 12.6804   1
  -3  -2  -4 23.4692 2.10909   5
  -3  -2  -4 23.1126 2.32633   3
  -3  -2  -4 22.9208 2.41476   2
  -3  -2  -4 25.3016 2.10682   5
   3   2   4 25.6492 2.12889   1
   3   2   4 23.0104 2.23115   4
   3   2   4 20.6907 2.34732   2
   3   2   4 25.1943 2.36988   3
   3   2   4 24.2026 2.17058   5
   3   2   4 21.6188 2.16159   5
  -4  -2  -4 90.5930 4.30319   1
  -4  -2  -4 91.6063 4.39131   5
  -4  -2  -4 91.5102 4.59715   3
  -4  -2  -4 90.2915 4.88093   2
   4   2   4 83.0135 4.54499   5
   4   2   4 94.6779 4.94708   2
   4   2   4 92.8764 4.53648   4
   4   2   4 93.9209 4.41279   1
   4   2   4 89.7321 4.57293   5
   4   2   4 93.1985 4.68519   3
  -5  -2  -4 85.0513 5.40868   2
  -5  -2  -4 86.2657 4.86598   5
  -5  -2  -4 80.0782 4.71429   5
  -5  -2  -4 76.7205 4.47811   1
  -5  -2  -4 83.7282 4.62594   3
   5   2   4 73.7571 4.60711   5
   5   2   4 80.8808 4.55562   4
   5   2   4 81.7223 5.00986   5
   5   2   4 74.7707 4.75842   1
   5   2   4 72.7093 5.07416   2
   5   2   4 85.2155 5.14074   3
  -6  -2  -4 72.1874 4.80474   1
  -6  -2  -4 77.3305 5.35936   5
  -6  -2  -4 61.8167 6.46537   5
  -6  -2  -4 74.9554 4.80998   3
   6   2   4 79.7913 5.85617   2
   6   2   4 73.6730 5.61497   3
   6   2   4 83.1908 5.59406   5
   6   2   4 73.8806 5.21656   5
   6   2   4 78.8053 4.81145   4
  -7  -2  -4 1.02314 2.17397   5
  -7  -2  -4 3.92117 2.19329   3
  -7  -2  -4 4.81774 2.14651   1
   7   2   4 3.53918 2.42618   5
   7   2   4 3.31112 2.08254   4
   7   2   4 1.94296 2.49498   2
  -8  -2  -4 2.05253 2.51972   3
  -8  -2  -4 -0.3196 2.64652   5
   8   2   4 -2.8571 2.08158   4
   8   2   4 0.28925 2.57105   5
  -9  -2  -4 0.83600 3.67477   5
  -9  -2  -4 4.98543 3.55198   3
  -9  -2  -4 -2.3731 2.88270   1
   9   2   4 1.75363 2.58449   4
   9   2   4 3.13992 3.67453   2
   8  -3  -4 7.18616 4.33916   2
  -8   3   4 2.93818 2.97621   1
  -8   3   4 4.18418 2.98274   5
   7  -3  -4 4.96626 2.46283   4
   7  -3  -4 1.25137 3.16020   2
  -7   3   4 0.81430 2.46479   1
  -7   3   4 1.10455 1.99222   5
   6  -3  -4 12.8841 3.44879   5
   6  -3  -4 21.1391 5.28201   2
   6  -3  -4 17.6783 3.89853   4
  -6   3   4 15.8356 4.29606   5
  -6   3   4 21.9056 4.01669   1
  -6   3   4 17.6429 3.87331   5
   5  -3  -4 90.7970 6.40719   2
   5  -3  -4 96.5840 5.45858   4
   5  -3  -4 82.4828 3.87423   5
  -5   3   4 82.7605 6.10854   4
  -5   3   4 81.2811 5.06914   1
  -5   3   4 94.3649 5.10083   5
  -5   3   4 91.1908 4.79780   5
   4  -3  -4 43.7913 2.37889   5
   4  -3  -4 48.4825 3.95550   1
   4  -3  -4 39.8457 2.19603   5
   4  -3  -4 42.7048 3.69737   4
   4  -3  -4 39.1460 4.00898   2
  -4   3   4 40.7610 2.94149   5
  -4   3   4 39.2659 3.39345   1
  -4   3   4 44.5413 3.18168   5
  -4   3   4 39.6679 4.13882   4
   3  -3  -4 2.12835 1.19235   4
   3  -3  -4 0.18762 1.02522   2
  -3   3   4 1.24288 0.88093   5
  -3   3   4 1.60091 1.31094   4
  -3   3   4 2.83762 1.34118   2
  -3   3   4 0.34851 0.71236   5
  -3   3   4 1.24553 0.88202   1
   2  -3  -4 479.934 14.3413   4
  -2   3   4 497.567 14.6253   2
  -2   3   4 479.618 13.6206   1
  -2   3   4 482.132 12.9903   5
  -2   3   4 484.389 12.9480   5
  -2   3   4 496.277 14.2775   4
  -2   3   4 487.306 12.9480   3
   1  -3  -4 198.830 6.38530   3
   1  -3  -4 198.809 7.10810   4
  -1   3   4 205.550 6.12986   1
  -1   3   4 200.458 5.68498   5
  -1   3   4 201.650 5.78255   5
  -1   3   4 205.202 6.12568   1
  -1   3   4 208.254 7.12472   4
   0  -3  -4 343.823 10.2086   3
   0  -3  -4 329.170 10.5695   4
   0   3   4 355.401 10.6875   4
   0   3   4 356.526 10.6640   2
   0   3   4 354.237 9.19173   5
   0   3   4 348.463 9.27954   5
   0   3   4 358.951 9.44712   1
   0   3   4 350.593 10.2236   3
  -1  -3  -4 415.534 12.2778   3
  -1  -3  -4 416.708 11.2552   1
  -1  -3  -4 422.169 10.8226   5
  -1  -3  -4 423.189 10.8465   5
   1   3   4 421.264 12.3192   2
   1   3   4 429.431 12.2665   3
   1   3   4 417.208 11.3323   5
   1   3   4 425.110 12.4772   4
   1   3   4 407.361 11.1834   5
   1   3   4 443.006 11.2862   1
  -2  -3  -4 825.124 20.9245   1
  -2  -3  -4 818.669 20.7388   5
  -2  -3  -4 773.336 21.7620   3
  -2  -3  -4 824.658 21.7281   2
  -2  -3  -4 805.624 20.6551   5
   2   3   4 786.213 20.8686   5
   2   3   4 809.764 21.9205   4
   2   3   4 803.837 21.7549   3
   2   3   4 807.243 21.7541   2
  -3  -3  -4 516.039 15.4107   3
  -3  -3  -4 542.057 15.4811   2
  -3  -3  -4 534.647 14.6395   5
  -3  -3  -4 528.248 14.7853   1
   3   3   4 518.895 15.4624   4
   3   3   4 539.016 15.3877   3
   3   3   4 532.789 14.7434   1
   3   3   4 533.161 15.4284   2
   3   3   4 522.210 14.8702   5
   3   3   4 538.197 14.7852   5
  -4  -3  -4 49.8689 3.60607   3
  -4  -3  -4 49.5471 3.14176   1
  -4  -3  -4 47.7201 3.11993   5
  -4  -3  -4 47.6462 3.85832   2
  -4  -3  -4 42.8864 3.40263   5
   4   3   4 50.3577 3.53668   2
   4   3   4 52.7350 3.40156   5
   4   3   4 51.2929 3.53075   5
   4   3   4 47.0216 3.45333   3
   4   3   4 48.7134 3.50094   4
   4   3   4 50.3801 3.38941   1
  -5  -3  -4 60.6813 4.91766   2
  -5  -3  -4 57.5945 3.98907   1
  -5  -3  -4 58.8115 4.16675   5
  -5  -3  -4 55.1955 4.44134   5
  -5  -3  -4 53.2698 3.97530   3
   5   3   4 56.6145 4.25879   5
   5   3   4 63.3465 4.42434   1
   5   3   4 57.9569 4.48449   3
   5   3   4 60.2837 4.37533   5
   5   3   4 59.1627 4.40941   2
   5   3   4 55.7470 4.25894   4
  -6  -3  -4 29.0156 6.65793   5
  -6  -3  -4 20.6443 3.28617   1
  -6  -3  -4 20.5922 3.72500   5
  -6  -3  -4 22.1388 3.62890   3
   6   3   4 23.2404 3.55454   4
   6   3   4 28.2425 4.23137   5
   6   3   4 23.2340 4.66105   5
   6   3   4 28.8039 4.72744   3
   6   3   4 21.1878 3.89912   2
  -7  -3  -4 193.337 8.83681   5
  -7  -3  -4 197.235 8.45366   3
  -7  -3  -4 192.824 8.86063   1
   7   3   4 167.130 10.4160   5
   7   3   4 199.710 8.99200   4
   7   3   4 204.757 9.59914   2
   7   3   4 189.771 8.97914   5
  -8  -3  -4 0.94919 2.45335   3
  -8  -3  -4 -2.5847 2.38803   5
  -8  -3  -4 3.69746 2.23615   1
   8   3   4 -0.4283 2.57429   2
   8   3   4 3.27833 3.52722   5
   8   3   4 0.83219 2.37145   4
  -9  -3  -4 2.38170 3.45127   3
  -9  -3  -4 -5.5564 2.66770   1
  -9  -3  -4 0.95627 3.42664   5
   9   3   4 4.42491 4.02499   2
   9   3   4 -4.1808 2.61046   4
   9   3   4 -3.4045 3.16170   5
   8  -4  -4 9.13768 3.48950   4
   8  -4  -4 -0.7139 4.07817   2
  -8   4   4 3.01003 2.73473   5
  -8   4   4 6.03570 3.29009   1
   7  -4  -4 3.78098 3.39901   2
   7  -4  -4 2.46141 2.57581   4
  -7   4   4 3.00691 2.51338   1
  -7   4   4 -3.1002 2.05382   5
   6  -4  -4 27.7666 4.46495   4
   6  -4  -4 41.0367 6.20168   2
  -6   4   4 35.9603 4.25071   5
  -6   4   4 25.7190 5.02790   5
  -6   4   4 30.3728 4.56965   1
   5  -4  -4 18.5123 3.68619   4
   5  -4  -4 21.8335 4.60599   2
  -5   4   4 16.9495 3.35573   5
  -5   4   4 16.3272 3.46601   1
  -5   4   4 19.9748 2.89125   5
  -5   4   4 23.8022 4.95256   4
   4  -4  -4 113.930 5.66805   4
   4  -4  -4 107.884 6.48898   2
  -4   4   4 96.1330 6.00486   4
  -4   4   4 108.155 5.49984   1
  -4   4   4 112.154 4.82372   5
  -4   4   4 107.340 4.82940   5
   3  -4  -4 93.1174 4.84015   4
   3  -4  -4 87.5516 5.11409   2
  -3   4   4 78.4553 5.23580   2
  -3   4   4 95.1466 3.85998   5
  -3   4   4 84.7703 4.41700   1
  -3   4   4 91.2651 3.75567   5
  -3   4   4 89.8431 4.88228   4
  -3   4   4 93.7594 3.55299   3
  -3   4   4 94.0209 3.50700   3
   2  -4  -4 11.6574 2.18327   4
   2  -4  -4 11.5903 2.22910   2
  -2   4   4 17.8298 2.51415   2
  -2   4   4 10.8711 1.72268   3
  -2   4   4 13.7109 1.85455   1
  -2   4   4 14.4600 2.37338   4
  -2   4   4 13.3121 1.32031   5
  -2   4   4 12.6696 1.30114   5
   1  -4  -4 6.18187 1.72597   4
   1  -4  -4 4.24989 1.16586   3
  -1   4   4 3.88965 1.15620   2
  -1   4   4 5.19662 0.80927   5
  -1   4   4 5.66994 0.77660   5
  -1   4   4 3.92408 1.14957   4
  -1   4   4 6.88930 1.33297   1
  -1   4   4 8.73737 1.51886   1
  -1   4   4 4.29081 1.16585   3
   0  -4  -4 325.478 10.3558   4
   0  -4  -4 318.071 9.85916   3
   0   4   4 279.679 9.01933   1
   0   4   4 330.268 10.1384   2
   0   4   4 316.396 8.28984   5
   0   4   4 331.428 8.37703   5
   0   4   4 330.005 10.2167   4
   0   4   4 327.103 9.83903   3
   0   4   4 333.240 10.0901   2
  -1  -4  -4 0.82146 0.63409   1
  -1  -4  -4 0.99088 0.91762   3
   1   4   4 0.75875 0.51710   5
   1   4   4 0.41735 0.62945   2
   1   4   4 0.39664 0.47505   5
   1   4   4 -0.0369 0.84007   4
   1   4   4 -0.3706 0.49740   1
   1   4   4 0.49325 0.82910   3
  -2  -4  -4 12.0586 1.33685   5
  -2  -4  -4 10.2333 1.87181   3
  -2  -4  -4 11.8742 2.00556   2
  -2  -4  -4 14.7400 1.30034   5
   2   4   4 15.2959 2.09205   3
   2   4   4 16.9816 2.16266   4
   2   4   4 12.2053 2.20280   4
   2   4   4 12.2103 1.47021   5
   2   4   4 13.5368 1.83911   2
   2   4   4 11.1086 1.46837   5
   2   4   4 14.7593 1.66301   1
  -3  -4  -4 53.9220 3.61196   3
  -3  -4  -4 48.5151 2.88843   1
  -3  -4  -4 51.0114 3.59038   2
  -3  -4  -4 52.2764 2.83609   5
  -3  -4  -4 53.5053 2.81132   5
   3   4   4 53.3104 3.48163   2
   3   4   4 51.8902 3.09730   5
   3   4   4 51.6107 3.67619   4
   3   4   4 49.7988 3.08358   1
   3   4   4 51.7559 2.87235   5
   3   4   4 52.4547 3.60051   3
  -4  -4  -4 334.715 10.6390   1
  -4  -4  -4 327.046 11.0324   3
  -4  -4  -4 330.721 10.9325   2
  -4  -4  -4 320.618 10.2517   5
   4   4   4 329.195 10.6725   5
   4   4   4 327.821 10.9272   2
   4   4   4 325.546 10.6245   1
   4   4   4 320.624 11.1954   4
   4   4   4 335.999 11.0278   3
   4   4   4 324.784 10.4045   5
  -5  -4  -4 3.21751 1.42385   5
  -5  -4  -4 1.41457 1.93380   2
  -5  -4  -4 3.51594 1.52831   3
  -5  -4  -4 4.22779 2.25059   5
  -5  -4  -4 7.94838 2.35221   1
   5   4   4 3.89144 1.44002   5
   5   4   4 4.86033 1.60804   2
   5   4   4 3.80746 1.36059   5
   5   4   4 3.70549 1.98927   1
   5   4   4 5.19864 2.13234   3
   5   4   4 4.42261 1.72575   4
  -6  -4  -4 443.045 14.5087   3
  -6  -4  -4 440.315 14.0584   5
  -6  -4  -4 427.118 14.4962   1
   6   4   4 431.348 14.7144   4
   6   4   4 440.087 14.4661   5
   6   4   4 428.744 14.4983   5
   6   4   4 435.702 14.8464   2
  -7  -4  -4 7.75211 2.85924   3
  -7  -4  -4 4.03556 2.01568   1
  -7  -4  -4 8.87181 2.82928   5
   7   4   4 16.1827 4.50644   2
   7   4   4 2.74982 3.21164   5
   7   4   4 10.1571 2.85595   5
  -8  -4  -4 -0.5703 3.08330   3
  -8  -4  -4 4.42532 3.02781   5
  -8  -4  -4 -1.1555 2.09238   1
   8   4   4 -0.4541 2.47304   4
   8   4   4 0.39398 2.91967   5
   8   4   4 2.21328 3.01988   2
  -9  -4  -4 18.2581 6.18017   1
  -9  -4  -4 20.7395 6.21364   3
   9   4   4 12.6151 3.90377   4
   9   4   4 14.1385 4.22629   5
   9   4   4 30.0418 8.29333   2
   8  -5  -4 5.20081 4.25044   2
  -8   5   4 5.80105 3.64901   1
  -8   5   4 10.2041 3.39316   5
   7  -5  -4 48.7291 6.30613   4
   7  -5  -4 27.7745 7.56221   2
  -7   5   4 47.4573 7.00078   1
  -7   5   4 46.1737 5.57154   5
   6  -5  -4 1.71547 2.32442   4
   6  -5  -4 -3.9949 2.43474   2
  -6   5   4 -2.3197 1.57427   5
  -6   5   4 0.58335 2.58626   5
  -6   5   4 2.88566 2.09727   1
   5  -5  -4 13.7233 4.50253   2
   5  -5  -4 23.6918 3.87568   4
  -5   5   4 21.7297 3.67809   1
  -5   5   4 23.4746 3.57614   5
  -5   5   4 21.2970 3.18686   5
  -5   5   4 17.0502 5.14260   4
   4  -5  -4 54.7714 5.13652   2
   4  -5  -4 54.1709 4.27607   4
  -4   5   4 53.8948 3.44483   5
  -4   5   4 50.0992 4.16282   1
  -4   5   4 51.3860 2.69462   3
  -4   5   4 50.7908 4.41193   4
  -4   5   4 52.3268 3.32999   5
  -4   5   4 47.8719 2.88962   3
   3  -5  -4 17.4369 2.87496   4
   3  -5  -4 17.2748 3.18848   2
  -3   5   4 12.8612 2.24276   3
  -3   5   4 12.5236 3.48818   4
  -3   5   4 12.9661 2.48921   1
  -3   5   4 14.5728 2.02640   5
  -3   5   4 12.7165 1.97181   3
  -3   5   4 13.7487 1.87848   5
   2  -5  -4 95.7630 5.13854   2
   2  -5  -4 96.1222 4.81764   4
  -2   5   4 97.6920 5.41192   2
  -2   5   4 97.9785 4.90120   4
  -2   5   4 100.013 3.35013   5
  -2   5   4 100.059 4.61943   1
  -2   5   4 94.7165 4.48207   1
  -2   5   4 97.6468 3.30764   5
  -2   5   4 100.597 4.44350   3
   1  -5  -4 271.672 9.42138   4
  -1   5   4 271.572 8.95866   3
  -1   5   4 283.566 8.85988   1
  -1   5   4 277.330 9.40018   2
  -1   5   4 281.759 9.39771   4
   0  -5  -4 34.6988 2.76713   3
   0   5   4 37.0981 2.89041   3
   0   5   4 38.4667 2.91902   2
   0   5   4 36.7735 3.10851   4
   0   5   4 40.4660 2.93461   2
   0   5   4 37.8045 2.46281   1
  -1  -5  -4 518.693 15.7535   3
  -1  -5  -4 558.713 15.1259   1
   1   5   4 540.777 14.0177   5
   1   5   4 558.611 15.0697   1
   1   5   4 532.258 15.7025   3
   1   5   4 552.040 15.5368   2
   1   5   4 548.417 15.8918   4
   1   5   4 531.611 14.0637   5
  -2  -5  -4 222.740 8.26590   3
  -2  -5  -4 231.126 7.55326   1
  -2  -5  -4 226.650 7.80425   2
   2   5   4 229.636 7.50921   1
   2   5   4 224.533 7.73541   2
   2   5   4 221.016 6.98773   5
   2   5   4 232.299 8.50203   4
   2   5   4 223.894 8.44668   4
   2   5   4 227.414 6.92805   5
   2   5   4 223.766 8.20990   3
  -3  -5  -4 7.34084 2.61085   2
  -3  -5  -4 11.1608 1.92302   1
  -3  -5  -4 9.37641 2.40547   3
  -3  -5  -4 9.98356 1.81013   5
  -3  -5  -4 8.28173 1.75977   5
   3   5   4 7.69381 1.88704   3
   3   5   4 9.73939 1.94100   5
   3   5   4 8.80103 2.09733   2
   3   5   4 9.15688 2.30733   1
   3   5   4 5.92755 1.54234   4
   3   5   4 10.3316 1.85275   5
  -4  -5  -4 75.4117 3.97041   5
  -4  -5  -4 81.9373 4.48272   1
  -4  -5  -4 84.5476 5.02042   2
  -4  -5  -4 81.6967 5.05055   3
  -4  -5  -4 88.0306 4.22658   5
   4   5   4 75.3906 4.34124   5
   4   5   4 85.4644 5.24898   4
   4   5   4 73.5656 4.65341   1
   4   5   4 75.9791 4.19560   5
   4   5   4 88.2439 4.71780   2
   4   5   4 82.8988 5.09379   3
  -5  -5  -4 84.1890 4.97526   1
  -5  -5  -4 85.0979 5.64664   2
  -5  -5  -4 82.5342 5.33413   3
   5   5   4 86.8390 5.20831   5
   5   5   4 79.2719 5.10617   2
   5   5   4 88.5099 5.75628   4
   5   5   4 78.8391 4.96239   5
  -6  -5  -4 265.765 10.0279   5
  -6  -5  -4 279.032 10.8225   3
  -6  -5  -4 268.665 10.5188   1
   6   5   4 268.860 10.7201   2
   6   5   4 268.543 10.5806   5
   6   5   4 275.825 11.0882   4
   6   5   4 265.672 10.7127   5
  -7  -5  -4 90.4531 6.33669   5
  -7  -5  -4 90.4869 6.51678   1
  -7  -5  -4 85.6415 6.18273   3
   7   5   4 95.8021 6.74351   2
   7   5   4 91.2658 6.57122   5
   7   5   4 86.2116 6.60721   4
   7   5   4 84.4270 7.87264   5
  -8  -5  -4 16.5582 5.26161   3
  -8  -5  -4 28.5896 5.49139   1
   8   5   4 17.1938 4.16068   5
   8   5   4 23.5792 6.93588   2
   8   5   4 13.1049 3.52446   4
  -9  -5  -4 -2.5568 3.13574   1
  -9  -5  -4 0.09203 3.68061   3
   9   5   4 1.39486 3.77362   2
   9   5   4 -1.5323 3.68076   4
   9   5   4 3.91300 3.69203   5
   7  -6  -4 35.1346 7.38471   4
   7  -6  -4 52.8623 9.12312   2
  -7   6   4 45.3477 7.62523   1
  -7   6   4 38.1804 5.80543   5
   6  -6  -4 80.0256 8.30477   2
   6  -6  -4 64.1166 6.22481   4
  -6   6   4 65.1603 5.41709   5
  -6   6   4 60.1534 6.36082   1
   5  -6  -4 0.61177 1.89275   4
   5  -6  -4 0.76700 2.36062   2
  -5   6   4 0.26244 1.82348   1
  -5   6   4 -2.2753 3.03851   4
  -5   6   4 2.04586 1.55955   5
   4  -6  -4 36.9678 4.62843   2
   4  -6  -4 37.9410 4.07979   4
  -4   6   4 33.0658 3.16647   3
  -4   6   4 38.5828 3.47505   3
  -4   6   4 42.1461 4.44645   4
  -4   6   4 43.1926 3.23178   5
  -4   6   4 43.3133 3.51912   5
  -4   6   4 38.5168 4.19341   1
   3  -6  -4 18.7935 3.11643   4
   3  -6  -4 16.4024 3.38624   2
  -3   6   4 15.5543 3.92851   1
  -3   6   4 10.6930 3.82565   4
  -3   6   4 16.6056 2.95117   1
  -3   6   4 19.0553 2.05066   5
  -3   6   4 22.7101 3.07619   3
  -3   6   4 19.3108 2.09384   5
  -3   6   4 14.5624 2.37397   3
  -2   6   4 127.875 5.72121   3
  -2   6   4 122.587 5.23618   3
  -2   6   4 129.476 5.94685   4
  -2   6   4 122.282 5.81518   1
  -2   6   4 131.789 3.93326   5
  -2   6   4 110.728 6.56722   2
  -2   6   4 135.526 5.83358   1
  -1   6   4 177.990 7.09878   3
  -1   6   4 180.915 6.92960   1
  -1   6   4 184.331 7.37750   2
  -1   6   4 182.164 7.12443   4
   0   6   4 195.901 7.57017   4
   0   6   4 202.880 7.15129   1
   0   6   4 194.726 7.34885   2
   0   6   4 198.258 7.60963   3
   0   6   4 196.003 7.36231   2
  -1  -6  -4 190.722 6.81011   1
  -1  -6  -4 186.070 7.42843   3
   1   6   4 192.730 7.57396   3
   1   6   4 192.217 7.69555   4
   1   6   4 184.382 6.88513   2
   1   6   4 187.628 6.74477   1
   1   6   4 194.460 6.99386   2
   1   6   4 185.223 5.55843   5
   1   6   4 184.247 5.60403   5
   1   6   4 195.009 7.48965   4
  -2  -6  -4 35.1433 3.37996   3
  -2  -6  -4 38.3674 2.74039   1
   2   6   4 38.3412 3.04313   1
   2   6   4 33.6215 3.54212   4
   2   6   4 36.0371 2.82149   2
   2   6   4 32.8391 2.25191   5
   2   6   4 35.2396 3.57128   4
   2   6   4 40.3887 3.54493   3
   2   6   4 36.8392 2.34517   5
  -3  -6  -4 921.923 24.5735   1
  -3  -6  -4 878.821 25.1558   3
  -3  -6  -4 887.032 24.1533   2
  -3  -6  -4 865.817 22.7326   5
  -3  -6  -4 932.742 22.8085   5
   3   6   4 899.127 25.5048   4
   3   6   4 916.095 24.3540   2
   3   6   4 867.551 24.2928   1
   3   6   4 898.385 23.6836   5
   3   6   4 844.779 24.9644   3
   3   6   4 888.161 23.8164   5
  -4  -6  -4 75.1615 5.30851   3
  -4  -6  -4 78.0883 4.65963   1
  -4  -6  -4 84.0617 4.95236   2
  -4  -6  -4 86.5174 4.11620   5
   4   6   4 83.4693 4.85269   2
   4   6   4 76.9390 4.48617   5
   4   6   4 78.9593 4.47963   5
   4   6   4 75.2725 5.32994   4
   4   6   4 83.5489 4.94567   1
  -5  -6  -4 315.953 11.6494   3
  -5  -6  -4 304.019 10.3127   5
  -5  -6  -4 287.950 11.1220   2
  -5  -6  -4 313.371 11.1579   1
   5   6   4 310.708 11.0689   5
   5   6   4 304.581 10.7076   5
   5   6   4 310.114 10.9433   2
   5   6   4 301.877 11.8514   4
  -6  -6  -4 -0.3274 1.53243   1
  -6  -6  -4 -1.1617 1.85203   3
   6   6   4 0.30410 1.94376   5
   6   6   4 -1.1497 2.38952   5
   6   6   4 -0.7424 1.94108   2
   6   6   4 -0.4015 1.95657   4
  -7  -6  -4 25.9053 4.61636   1
  -7  -6  -4 25.9737 5.99357   5
  -7  -6  -4 39.0021 5.93228   3
   7   6   4 21.9694 5.73859   5
   7   6   4 23.2739 4.94974   5
   7   6   4 30.6468 5.32646   4
  -8  -6  -4 9.78285 3.62832   3
  -8  -6  -4 5.55329 2.52644   1
   8   6   4 20.9460 6.68274   4
   8   6   4 5.58028 3.37187   2
   8   6   4 5.13016 3.34860   5
  -9  -6  -4 27.6778 6.69454   1
   9   6   4 35.7066 8.16535   4
   9   6   4 39.9242 9.33171   2
   7  -7  -4 3.71735 3.83540   2
  -7   7   4 4.33076 2.79003   5
  -7   7   4 3.77331 3.43506   1
   6  -7  -4 2.37414 2.91448   2
  -6   7   4 3.01603 2.01179   5
  -6   7   4 5.16658 2.80267   1
   5  -7  -4 3.53553 2.53345   2
  -5   7   4 5.17548 2.41473   1
  -5   7   4 2.84826 1.55807   5
  -5   7   4 3.13662 1.80011   3
  -5   7   4 0.69850 1.88476   5
   4  -7  -4 5.64320 2.51189   2
  -4   7   4 12.5121 2.72737   5
  -4   7   4 4.14389 2.77495   4
  -4   7   4 7.81548 1.98991   3
  -4   7   4 15.1585 4.39072   3
  -4   7   4 7.40296 2.14719   1
  -4   7   4 8.66906 2.76120   5
   3  -7  -4 10.4131 3.60165   2
  -3   7   4 16.4499 3.89538   4
  -3   7   4 8.91248 3.10723   1
  -3   7   4 13.7471 1.97176   5
  -3   7   4 9.77571 2.71444   3
  -3   7   4 11.2740 3.90658   3
  -3   7   4 12.2080 2.18054   5
  -2   7   4 194.404 7.92571   3
  -2   7   4 193.520 7.60157   3
  -2   7   4 197.984 8.28168   1
  -2   7   4 194.663 7.98158   1
  -2   7   4 186.387 8.08378   4
  -2   7   4 225.963 12.0394   2
  -1   7   4 65.6106 4.49065   1
  -1   7   4 67.1168 5.03339   2
  -1   7   4 67.5049 4.73143   4
  -1   7   4 72.2955 4.83983   3
   0   7   4 7.96014 2.39240   2
   0   7   4 4.38519 1.91699   4
   0   7   4 4.09961 1.44275   1
   0   7   4 13.6991 3.35557   3
   0   7   4 5.71311 1.62585   4
   0   7   4 4.94413 1.81448   2
  -1  -7  -4 40.6153 3.27305   1
   1   7   4 39.4416 2.16764   5
   1   7   4 41.3617 3.90246   4
   1   7   4 40.5783 2.22017   5
   1   7   4 38.7515 3.36710   1
   1   7   4 46.1927 3.42173   2
   1   7   4 32.9360 4.13866   3
   1   7   4 39.9073 3.11785   2
   1   7   4 40.4633 3.74529   4
  -2  -7  -4 32.9885 3.76990   3
  -2  -7  -4 33.4867 3.19011   1
   2   7   4 33.6918 2.50225   5
   2   7   4 32.9967 4.42705   3
   2   7   4 35.5627 2.65231   5
   2   7   4 34.4565 3.99387   4
   2   7   4 38.7957 3.38278   1
   2   7   4 37.6590 3.00859   2
   2   7   4 34.3586 4.39043   4
  -3  -7  -4 107.128 6.04691   3
  -3  -7  -4 100.524 5.22293   1
   3   7   4 100.570 5.55739   1
   3   7   4 99.4557 4.93049   2
   3   7   4 96.6806 4.58085   5
   3   7   4 92.8467 4.57750   5
   3   7   4 104.973 6.12684   4
  -4  -7  -4 229.925 8.69766   2
  -4  -7  -4 222.568 8.96058   1
  -4  -7  -4 233.934 9.65315   3
  -4  -7  -4 236.095 7.65987   5
   4   7   4 233.878 9.96165   4
   4   7   4 231.101 8.49112   5
   4   7   4 229.054 8.55295   2
   4   7   4 229.067 8.57192   5
  -5  -7  -4 25.5138 3.85113   5
  -5  -7  -4 24.1785 4.13795   3
  -5  -7  -4 17.0950 4.76981   2
  -5  -7  -4 22.1904 3.57289   1
   5   7   4 24.3053 3.75683   2
   5   7   4 28.2694 4.65485   4
   5   7   4 25.1979 4.23943   5
   5   7   4 24.4257 3.98454   5
  -6  -7  -4 70.3698 6.05722   1
  -6  -7  -4 75.6254 6.40942   3
  -6  -7  -4 66.2437 5.90761   5
   6   7   4 53.5331 6.11510   5
   6   7   4 69.5552 5.72093   5
   6   7   4 63.9163 5.54292   2
   6   7   4 64.0185 5.86602   4
  -7  -7  -4 47.8737 6.19712   1
  -7  -7  -4 51.5234 6.58062   3
   7   7   4 44.6335 6.54303   4
   7   7   4 47.1791 6.50607   5
   7   7   4 56.1186 5.94194   2
  -8  -7  -4 8.69514 3.46272   1
   8   7   4 8.79002 3.63516   4
   8   7   4 11.7403 4.10655   5
  -9  -7  -4 45.1376 8.84081   1
   9   7   4 43.3037 10.8654   5
   9   7   4 27.9100 9.01888   4
   9   7   4 35.0940 9.44021   2
   6  -8  -4 8.52600 4.27458   2
  -6   8   4 18.8796 4.99839   5
  -6   8   4 24.4154 7.17041   1
   5  -8  -4 0.70518 2.85543   2
  -5   8   4 5.72562 2.68233   5
  -5   8   4 4.12858 1.98424   5
  -5   8   4 -2.0318 2.25738   1
  -5   8   4 0.54122 2.07416   3
   4  -8  -4 21.8674 5.61239   2
  -4   8   4 15.5332 3.31175   5
  -4   8   4 15.2235 3.67453   3
  -4   8   4 10.1223 2.56557   1
  -4   8   4 11.7693 2.92255   5
  -3   8   4 82.2433 6.36356   3
  -3   8   4 83.2374 3.58869   5
  -3   8   4 87.8627 5.23047   3
  -3   8   4 75.9964 6.33284   4
  -3   8   4 86.4477 6.05893   1
  -3   8   4 82.2975 3.81083   5
  -2   8   4 1.53766 1.49131   1
  -2   8   4 1.88653 1.73559   3
  -2   8   4 -0.1703 2.16281   4
  -2   8   4 -5.2664 2.85759   3
  -1   8   4 8.39995 3.74211   3
  -1   8   4 16.4308 3.60359   4
  -1   8   4 8.44867 2.36187   4
  -1   8   4 3.49135 2.57671   2
  -1   8   4 8.72527 2.14993   3
   0   8   4 2.13212 1.98915   4
   0   8   4 4.30504 1.38532   2
   0   8   4 4.05605 2.00611   1
   0   8   4 5.24117 1.88647   4
   0   8   4 1.01078 1.83839   2
  -1  -8  -4 -0.4307 1.14929   1
   1   8   4 1.82624 1.66371   4
   1   8   4 2.73111 1.49708   2
   1   8   4 0.21657 0.86196   5
   1   8   4 0.76758 1.08793   2
   1   8   4 0.89913 1.61432   1
   1   8   4 0.51566 0.77036   5
  -2  -8  -4 32.0812 3.44907   1
   2   8   4 37.3339 4.14627   4
   2   8   4 36.9034 3.67829   2
   2   8   4 40.6614 3.17887   2
   2   8   4 39.9518 2.89169   5
   2   8   4 37.7391 2.89585   5
  -3  -8  -4 42.9363 4.12246   1
   3   8   4 42.9375 3.36861   5
   3   8   4 45.4368 4.99229   4
   3   8   4 40.9057 3.64532   2
   3   8   4 40.6771 3.48182   5
  -4  -8  -4 4.89946 1.46527   5
  -4  -8  -4 4.01177 1.69956   1
   4   8   4 4.86422 1.95874   5
   4   8   4 3.71625 2.15110   4
   4   8   4 4.75753 1.76058   5
   4   8   4 4.44857 1.61709   2
  -5  -8  -4 37.9958 5.25066   2
  -5  -8  -4 29.6451 4.31735   5
  -5  -8  -4 17.9028 3.98694   1
   5   8   4 35.8751 4.51441   2
   5   8   4 29.6508 5.08714   5
   5   8   4 26.2246 3.84938   5
   5   8   4 28.2346 5.11872   4
  -6  -8  -4 13.5390 4.09974   1
   6   8   4 8.98560 3.04934   4
   6   8   4 5.04992 3.58118   5
   6   8   4 8.48135 2.58194   2
   6   8   4 8.60029 2.54339   5
  -7  -8  -4 69.8942 6.89152   1
   7   8   4 76.6763 7.54047   5
   7   8   4 69.4484 7.22539   2
   7   8   4 62.3555 7.33184   4
  -8  -8  -4 -4.0017 2.97913   1
   8   8   4 2.05199 3.83645   4
   8   8   4 -2.7184 3.92805   5
   8   8   4 5.03389 3.72845   2
   6  -9  -4 9.99745 4.74518   2
  -6   9   4 7.59413 2.74761   5
  -6   9   4 7.97931 3.58201   1
   5  -9  -4 34.4681 7.98791   2
  -5   9   4 50.6736 4.79390   5
  -5   9   4 52.1731 7.04449   1
  -5   9   4 43.1902 5.95149   5
   4  -9  -4 37.7315 6.58438   2
  -4   9   4 23.2118 4.68743   3
  -4   9   4 42.9097 5.92718   4
  -4   9   4 26.4471 3.77374   5
  -4   9   4 35.8550 3.55198   5
  -4   9   4 20.5448 5.61413   1
  -3   9   4 96.9127 7.09675   1
  -3   9   4 90.4535 4.00343   5
  -3   9   4 96.9528 6.21640   3
  -3   9   4 101.467 6.81648   4
  -3   9   4 90.9039 4.37922   5
  -2   9   4 46.6868 4.71697   3
  -2   9   4 36.5786 5.09625   4
  -2   9   4 44.2384 7.05398   4
  -2   9   4 37.3991 4.56748   1
  -1   9   4 29.1663 4.45371   4
  -1   9   4 24.9442 3.95871   3
   0   9   4 21.2726 3.56274   2
   0   9   4 22.4985 4.57799   2
   0   9   4 25.0541 4.54969   4
  -1  -9  -4 49.2623 4.42043   1
   1   9   4 58.5497 5.51302   4
   1   9   4 50.9564 2.89281   5
   1   9   4 40.0773 4.99498   2
   1   9   4 53.3215 4.01678   2
   1   9   4 51.1048 2.91648   5
  -2  -9  -4 25.5373 3.57679   1
   2   9   4 28.6075 4.67280   4
   2   9   4 28.6552 2.97234   5
   2   9   4 29.3928 3.04059   5
   2   9   4 31.7367 3.94580   2
   2   9   4 27.2357 3.35291   2
  -3  -9  -4 2.56832 1.64112   1
   3   9   4 4.23388 1.89913   2
   3   9   4 2.81829 1.46929   5
   3   9   4 12.6577 4.51108   4
   3   9   4 4.92847 1.59076   2
   3   9   4 4.30191 1.74249   5
  -4  -9  -4 1.46411 1.98758   1
   4   9   4 -0.6473 1.66429   2
   4   9   4 -0.8212 1.55284   5
   4   9   4 -0.7892 2.19850   4
   4   9   4 -2.3722 2.04059   5
  -5  -9  -4 -4.1592 2.18978   5
  -5  -9  -4 -1.3346 1.85989   1
   5   9   4 -3.4875 2.20966   4
   5   9   4 1.87217 2.15759   5
   5   9   4 4.46405 2.24811   5
   5   9   4 1.53685 2.00892   2
  -6  -9  -4 35.0766 5.33677   1
   6   9   4 43.7498 5.80313   5
   6   9   4 38.0387 5.43274   2
   6   9   4 41.6249 6.64632   4
  -7  -9  -4 107.054 8.58463   1
   7   9   4 100.523 8.86318   4
   7   9   4 117.693 9.20679   5
   7   9   4 107.249 8.01828   2
  -8  -9  -4 4.29888 3.73435   1
   8   9   4 2.94968 3.72523   2
   8   9   4 4.20762 4.38348   4
   8   9   4 -1.0396 3.70644   5
  -5  10   4 27.0139 7.47243   1
  -5  10   4 22.1838 4.92453   5
  -4  10   4 -0.0708 3.11702   4
  -4  10   4 -0.4423 1.67805   5
  -4  10   4 0.31318 2.03644   5
  -4  10   4 0.75573 3.11320   3
  -4  10   4 2.75446 3.17374   1
  -3  10   4 0.90378 1.23973   5
  -3  10   4 16.5799 5.33659   3
  -3  10   4 3.76816 2.70492   4
  -3  10   4 1.38824 2.55078   1
  -2  10   4 17.7446 4.72658   1
  -2  10   4 27.0756 5.22622   3
  -2  10   4 37.3845 5.85346   4
  -1  10   4 31.0625 4.58924   2
  -1  10   4 28.6998 4.81898   3
  -1  10   4 27.4673 5.03507   4
   0  10   4 1.72353 2.98576   2
   0  10   4 1.17179 0.95693   5
   0  10   4 1.12314 1.88144   2
   0  10   4 -0.0918 2.14030   4
   0  10   4 3.75546 2.39455   3
  -1 -10  -4 -0.7762 1.57410   1
   1  10   4 0.87389 1.14729   5
   1  10   4 0.90786 1.18325   5
   1  10   4 0.61230 2.16040   4
   1  10   4 -0.9042 2.55283   2
   1  10   4 2.00764 1.54904   2
  -2 -10  -4 2.49486 2.13641   1
   2  10   4 -0.5126 1.33541   5
   2  10   4 1.76245 1.52354   2
   2  10   4 1.98829 2.26369   2
   2  10   4 -0.3609 2.24244   4
   2  10   4 -0.1850 1.42582   5
  -3 -10  -4 7.78183 2.40605   1
   3  10   4 14.9969 3.48781   5
   3  10   4 11.0094 2.96354   4
   3  10   4 9.17014 2.25057   5
   3  10   4 11.4293 3.34595   2
   3  10   4 17.0837 4.52703   2
  -4 -10  -4 77.8804 6.66042   1
   4  10   4 77.8295 7.61795   4
   4  10   4 65.8372 6.11736   5
   4  10   4 69.5793 5.06985   2
   4  10   4 75.6426 5.42020   5
  -5 -10  -4 3.59902 2.76133   1
   5  10   4 0.98625 3.08615   4
   5  10   4 4.08040 2.19295   5
   5  10   4 2.21432 2.23985   2
  -6 -10  -4 1.97831 2.78295   1
   6  10   4 0.32927 2.82318   4
   6  10   4 4.60214 2.56144   2
   6  10   4 -1.2481 2.72230   5
  -7 -10  -4 5.93865 3.34105   1
   7  10   4 5.33347 4.06118   4
   7  10   4 3.66138 3.70111   5
  -4  11   4 3.39742 3.69543   3
  -4  11   4 6.18427 2.13629   5
  -4  11   4 0.66811 2.24932   5
  -4  11   4 5.30773 4.00606   1
  -3  11   4 7.53554 3.96408   4
  -3  11   4 8.82397 3.47318   1
  -3  11   4 7.66530 1.62197   5
  -3  11   4 21.9579 6.86198   3
  -2  11   4 47.0433 6.58835   3
  -2  11   4 37.1356 5.95628   1
  -2  11   4 41.8345 7.27803   4
  -1  11   4 5.76491 3.39902   3
  -1  11   4 -1.7056 2.66584   4
  -1  11   4 1.44142 2.24449   2
   0  11   4 3.10885 3.08604   4
   0  11   4 4.35369 2.61972   3
   0  11   4 3.85646 1.26406   5
   0  11   4 0.66778 2.09128   2
   1  11   4 99.6297 5.84650   2
   1  11   4 101.336 4.86057   5
   1  11   4 106.534 7.68583   3
   1  11   4 110.562 8.06476   4
   1  11   4 105.924 4.85301   5
  -2 -11  -4 16.9229 5.34750   1
   2  11   4 21.5334 5.59921   3
   2  11   4 22.8523 5.98552   4
   2  11   4 13.8155 3.58026   5
   2  11   4 12.8080 3.83377   5
   2  11   4 21.5136 3.88680   2
  -3 -11  -4 61.3272 6.11110   1
   3  11   4 55.5649 5.59562   5
   3  11   4 66.6171 7.53981   4
   3  11   4 65.6505 4.72852   2
   3  11   4 67.5669 4.83159   5
  -4 -11  -4 7.54436 3.24046   1
   4  11   4 -2.0511 3.12091   4
   4  11   4 3.41949 2.34409   2
   4  11   4 -0.6306 2.35639   5
  -5 -11  -4 22.9438 6.52265   1
   5  11   4 6.04991 3.67541   2
   5  11   4 7.45292 3.97550   4
   5  11   4 6.37879 2.75891   5
  -6 -11  -4 7.72210 3.95642   1
   6  11   4 1.73588 3.96383   4
  -7 -11  -4 7.82324 4.47282   1
   7  11   4 -7.4123 4.50028   5
   7  11   4 -5.1011 4.52802   4
  -3  12   4 39.5176 8.55428   3
  -3  12   4 39.6028 9.17631   1
  -2  12   4 24.5407 7.56309   1
  -2  12   4 7.86843 4.13384   4
  -2  12   4 10.2069 4.12556   3
  -2  12   4 4.43164 3.33683   2
  -1  12   4 37.5772 6.51531   2
  -1  12   4 52.6344 8.08805   3
  -1  12   4 39.7372 7.97629   4
   0  12   4 6.98351 3.52740   4
   0  12   4 24.2568 6.27457   3
   0  12   4 9.13233 2.50574   2
   0  12   4 8.40539 1.89536   5
   1  12   4 8.16924 2.14406   5
   1  12   4 9.16761 2.07463   5
   1  12   4 9.02288 3.42547   3
   1  12   4 12.1208 3.99988   4
   1  12   4 14.3568 4.36444   2
  -2 -12  -4 1.50382 3.06389   1
   2  12   4 8.15574 2.58512   5
   2  12   4 0.80942 3.17050   3
   2  12   4 5.16788 1.94244   5
   2  12   4 6.47325 3.81522   4
   2  12   4 5.29745 3.39856   2
   3  12   4 0.75453 3.52487   4
   3  12   4 8.23380 3.55361   3
   3  12   4 8.73316 2.21631   5
  -4 -12  -4 4.33300 3.54093   1
   4  12   4 -0.2709 3.49424   4
   4  12   4 4.02963 2.53853   5
   4  12   4 12.2145 4.35521   3
  -5 -12  -4 7.13910 4.20721   1
   5  12   4 23.5379 6.39315   5
  -6 -12  -4 4.87702 4.47889   1
   6  12   4 8.11842 4.11461   5
  -1  13   4 4.33196 5.01075   3
  -1  13   4 4.91738 3.90504   1
  -1  13   4 6.24977 4.96039   4
   0  13   4 64.2577 10.3068   4
   0  13   4 62.2817 8.90533   3
   0  13   4 71.5265 4.90353   5
   1  13   4 31.9764 5.35279   5
   1  13   4 21.3097 5.00865   3
   1  13   4 36.6881 4.74393   5
   2  13   4 298.864 10.8931   5
   2  13   4 291.202 14.4426   3
   2  13   4 299.300 15.3048   4
  -3 -13  -4 3.20595 4.26579   1
   3  13   4 4.00581 2.85089   5
   3  13   4 -3.3209 4.18007   4
   3  13   4 1.12121 4.52988   3
  -4 -13  -4 36.3610 7.71016   1
   4  13   4 15.6392 4.83174   3
   4  13   4 13.8800 4.99781   4
   4  11  -5 7.46163 5.12877   5
   4  11  -5 -1.9364 5.61392   3
   4  11  -5 3.43605 4.95701   4
  -4 -11   5 0.22697 4.07789   1
   3  11  -5 3.82951 4.75563   4
   3  11  -5 4.93316 4.33608   5
   3  11  -5 1.62201 5.24551   3
  -3 -11   5 -0.1149 4.18341   1
   2  11  -5 63.5765 9.25431   3
   2  11  -5 93.7584 8.84951   5
   2  11  -5 71.5974 9.14563   4
  -2 -11   5 85.3161 8.42191   1
   1  11  -5 8.03195 4.93348   3
   0  11  -5 109.841 10.1138   3
   0  11  -5 106.667 8.40296   5
   0  11  -5 99.7447 8.81150   4
  -1  11  -5 6.07144 5.04748   3
  -1  11  -5 9.76206 3.47415   5
  -2  11  -5 27.0245 6.54846   5
  -2  11  -5 18.6542 5.42931   3
  -2  11  -5 12.2936 4.43699   1
   5  10  -5 6.63965 4.43075   5
   5  10  -5 3.47321 5.19869   3
   5  10  -5 5.77270 4.78552   4
  -5 -10   5 5.81244 4.25369   1
   4  10  -5 15.4897 4.52117   5
   4  10  -5 15.7182 4.77315   4
   4  10  -5 6.23933 4.56038   3
  -4 -10   5 9.50766 3.70480   1
   3  10  -5 4.44032 3.83890   5
   3  10  -5 1.98187 3.56290   4
   3  10  -5 -1.1089 3.93684   3
  -3 -10   5 5.14428 3.62347   1
   2  10  -5 53.6627 8.18262   3
   2  10  -5 61.5529 7.97610   4
   2  10  -5 58.5197 6.63319   5
  -2 -10   5 49.4279 6.70973   1
   1  10  -5 33.0596 6.27964   5
   1  10  -5 23.2234 6.35765   3
   1  10  -5 35.4210 6.80171   4
   0  10  -5 93.2252 7.10696   4
   0  10  -5 84.2721 7.13305   5
   0  10  -5 93.0485 8.05129   3
  -1  10  -5 39.3346 5.76797   4
  -1  10  -5 37.5928 5.52783   5
  -1  10  -5 29.5381 6.97169   3
  -2  10  -5 41.4103 7.59221   3
  -2  10  -5 42.6530 7.64774   1
  -2  10  -5 30.0845 6.07825   5
  -3  10  -5 17.7479 4.65095   1
  -3  10  -5 10.9294 3.20417   5
  -4  10  -5 6.00563 3.57246   5
  -4  10  -5 -1.3993 5.21211   3
  -4  10  -5 3.61787 4.10473   1
   6   9  -5 -8.8748 4.35167   5
   6   9  -5 4.38587 5.31853   3
   6   9  -5 -1.9966 4.64159   4
  -6  -9   5 2.81928 4.55742   1
   5   9  -5 5.39909 4.77829   5
   5   9  -5 -1.0308 4.15466   3
   5   9  -5 -0.2646 4.03050   4
  -5  -9   5 6.39725 3.60076   1
   4   9  -5 0.57471 3.59710   4
   4   9  -5 0.80983 3.94279   3
   4   9  -5 -2.6821 3.50438   5
  -4  -9   5 2.11511 2.98846   1
   3   9  -5 11.7471 3.52400   4
   3   9  -5 8.93113 2.82871   5
   3   9  -5 5.20863 3.47440   3
  -3  -9   5 7.21337 2.76844   1
   2   9  -5 -0.3895 2.66721   4
   2   9  -5 2.60269 3.06132   3
   2   9  -5 0.48065 2.56481   5
  -2  -9   5 -1.1976 2.18719   1
   1   9  -5 9.83700 2.67523   4
   1   9  -5 6.06419 2.96163   3
   1   9  -5 7.06172 2.50155   5
   0   9  -5 2.07468 2.41288   4
   0   9  -5 -0.4729 2.00564   5
   0   9  -5 -0.6592 2.51295   3
  -1   9  -5 20.4684 4.62207   5
  -1   9  -5 23.7993 4.50270   4
  -1   9  -5 15.7684 5.38155   3
  -2   9  -5 -2.1282 2.63168   1
  -2   9  -5 -2.5156 1.99919   5
  -2   9  -5 0.67554 3.11201   3
   2  -9   5 3.39848 2.15975   2
  -3   9  -5 1.39485 2.99186   1
  -3   9  -5 0.19714 2.65773   5
  -3   9  -5 3.00967 3.51085   3
   3  -9   5 4.09151 2.63693   2
  -4   9  -5 40.3168 8.35723   3
  -4   9  -5 30.3543 6.55906   5
  -4   9  -5 36.9543 7.08148   1
   4  -9   5 42.5192 6.85871   2
  -5   9  -5 5.78710 3.84659   1
  -5   9  -5 8.98560 3.88479   5
  -5   9  -5 12.6045 5.45149   3
   5  -9   5 2.74268 4.04165   2
   7   8  -5 26.5086 7.99124   3
   7   8  -5 11.0119 4.78950   4
  -7  -8   5 15.9748 4.31785   1
   6   8  -5 10.1794 4.78127   3
   6   8  -5 32.0121 10.1569   5
   6   8  -5 8.98431 4.40073   4
  -6  -8   5 8.00320 4.20635   1
   5   8  -5 0.26450 3.42292   4
   5   8  -5 -2.0119 3.41716   3
   5   8  -5 -2.3674 3.45960   5
  -5  -8   5 0.33043 2.70682   1
   4   8  -5 8.47540 3.41849   3
   4   8  -5 3.37327 3.28489   4
   4   8  -5 21.7038 7.12081   5
  -4  -8   5 8.93671 3.12411   1
  -4  -8   5 3.52132 3.44894   5
   3   8  -5 29.7252 5.37537   3
   3   8  -5 41.6572 6.33206   5
   3   8  -5 33.2883 6.05788   4
   3   8  -5 30.8217 9.03548   5
  -3  -8   5 28.4877 5.97040   5
   2   8  -5 2.71619 2.16756   5
   2   8  -5 7.79001 3.47846   5
   2   8  -5 4.62521 2.77683   3
   2   8  -5 3.23609 2.20087   4
  -2  -8   5 0.27969 2.32844   5
  -2  -8   5 4.41523 2.15372   1
   1   8  -5 42.1961 4.88259   4
   1   8  -5 29.3206 6.24733   5
   1   8  -5 38.6410 5.14331   3
   1   8  -5 48.9929 5.13526   5
  -1  -8   5 47.6449 5.05584   5
  -1  -8   5 44.7953 4.90523   1
   0   8  -5 95.8949 5.88758   4
   0   8  -5 87.2274 6.61370   5
   0   8  -5 102.540 6.23958   5
   0   8  -5 94.2816 6.77837   3
   0  -8   5 93.5787 7.10965   4
   0  -8   5 102.649 6.15068   5
  -1   8  -5 4.07335 1.72586   2
  -1   8  -5 2.09066 2.49313   3
  -1   8  -5 6.66463 2.66374   5
  -1   8  -5 6.82837 1.82248   4
  -1   8  -5 12.3131 4.01914   5
   1  -8   5 8.74531 2.83265   2
   1  -8   5 6.37776 2.20881   4
   1  -8   5 5.39602 2.42562   5
  -2   8  -5 35.7076 5.21787   2
  -2   8  -5 34.1567 4.35977   5
  -2   8  -5 39.6925 5.11369   1
  -2   8  -5 42.9306 5.58624   3
  -2   8  -5 33.7519 6.03525   5
   2  -8   5 49.9813 5.78149   5
   2  -8   5 40.6108 4.09842   2
  -3   8  -5 61.8380 6.12305   5
  -3   8  -5 74.8752 7.13436   3
  -3   8  -5 75.5158 6.78122   1
   3  -8   5 64.1918 5.34513   2
  -4   8  -5 104.744 8.51835   3
  -4   8  -5 95.0489 8.04426   1
  -4   8  -5 92.4897 7.25707   5
   4  -8   5 89.8227 7.16416   2
  -5   8  -5 5.21213 3.32245   5
  -5   8  -5 6.17353 3.22603   1
  -5   8  -5 5.56143 4.03525   3
   5  -8   5 -0.4373 3.34730   2
  -6   8  -5 3.87257 3.63204   1
  -6   8  -5 4.58291 4.69965   3
   6  -8   5 6.05066 3.88352   2
   7   7  -5 11.8069 4.48056   4
   7   7  -5 9.50828 4.29753   3
  -7  -7   5 3.92624 3.55952   1
   6   7  -5 -2.2508 3.19506   5
   6   7  -5 -0.3332 3.17058   3
   6   7  -5 3.66608 3.87764   4
  -6  -7   5 2.12256 2.67299   1
  -6  -7   5 2.31892 5.90452   5
   5   7  -5 22.0789 5.89608   4
   5   7  -5 31.9455 7.11498   5
   5   7  -5 23.3526 5.61369   3
  -5  -7   5 27.9097 7.32503   5
  -5  -7   5 20.2751 4.42394   2
  -5  -7   5 23.9380 5.20331   1
   4   7  -5 21.8155 5.14141   5
   4   7  -5 21.9425 5.57066   4
   4   7  -5 7.54531 3.90149   5
   4   7  -5 14.6673 4.93613   3
  -4  -7   5 11.7069 4.02693   1
  -4  -7   5 7.16374 2.39538   5
   3   7  -5 21.7923 5.65724   5
   3   7  -5 14.0192 4.67478   4
   3   7  -5 13.9185 4.64579   5
   3   7  -5 13.7674 4.31720   3
  -3  -7   5 7.94089 1.94093   1
  -3  -7   5 16.9100 4.76504   5
   2   7  -5 22.8641 4.55102   3
   2   7  -5 28.1523 4.34286   4
   2   7  -5 23.0903 5.29645   5
   2   7  -5 32.8362 4.74057   5
  -2  -7   5 24.8462 3.50486   1
  -2  -7   5 27.8318 4.31947   5
   1   7  -5 23.0949 4.11916   4
   1   7  -5 25.3980 3.81208   5
   1   7  -5 19.6280 4.00139   3
   1   7  -5 31.5641 4.61427   5
  -1  -7   5 35.5458 5.87038   4
  -1  -7   5 22.6040 4.22504   5
  -1  -7   5 26.3804 3.80704   1
   0   7  -5 1.03136 1.45466   5
   0   7  -5 2.19790 1.87217   3
   0   7  -5 -0.3962 1.99410   5
   0   7  -5 3.97706 1.69018   4
   0  -7   5 1.89049 0.97606   2
   0  -7   5 3.48473 2.38151   4
  -1   7  -5 -0.5174 2.01903   3
  -1   7  -5 0.00263 1.75635   5
  -1   7  -5 0.90123 1.47853   4
  -1   7  -5 0.17810 1.83013   5
  -1   7  -5 0.12091 1.44784   2
   1  -7   5 3.08307 1.85220   4
   1  -7   5 1.65470 1.75984   5
  -2   7  -5 -1.0107 1.70109   1
  -2   7  -5 0.00825 1.57101   5
  -2   7  -5 0.60480 2.19170   2
  -2   7  -5 3.26066 1.99069   5
  -2   7  -5 1.45070 2.05390   3
   2  -7   5 4.17254 1.81780   5
   2  -7   5 2.82790 1.63943   2
  -3   7  -5 1.94116 2.38219   1
  -3   7  -5 0.79090 2.30606   5
  -3   7  -5 0.25690 2.03413   5
  -3   7  -5 1.07707 3.16952   2
  -3   7  -5 2.06503 2.37641   3
   3  -7   5 0.36673 1.74282   2
   3  -7   5 1.88460 2.30058   5
  -4   7  -5 82.6123 6.84088   1
  -4   7  -5 86.4188 6.62743   5
  -4   7  -5 83.2185 7.04574   3
   4  -7   5 91.8898 6.72526   2
  -5   7  -5 54.8692 7.13521   3
  -5   7  -5 58.8176 6.78803   1
  -5   7  -5 56.0140 6.31876   5
   5  -7   5 37.2847 6.57693   2
  -6   7  -5 3.60936 4.06362   3
  -6   7  -5 1.70588 2.68451   5
  -6   7  -5 0.05106 3.03732   1
   6  -7   5 0.66083 3.24341   2
  -7   7  -5 1.72832 3.77024   5
  -7   7  -5 -2.4912 4.27398   3
  -7   7  -5 6.41675 4.49951   1
   7  -7   5 -7.8012 4.18166   2
   8   6  -5 -4.6532 4.01591   4
  -8  -6   5 7.51754 3.94102   1
   7   6  -5 328.346 16.4748   5
   7   6  -5 323.602 15.7200   4
   7   6  -5 301.459 14.1441   3
  -7  -6   5 311.280 14.8058   5
  -7  -6   5 297.511 13.4212   1
   6   6  -5 28.7947 5.48020   3
   6   6  -5 36.9882 6.89207   4
   6   6  -5 33.8292 6.96037   5
  -6  -6   5 52.8935 7.31860   5
  -6  -6   5 30.9677 5.30614   1
   5   6  -5 80.8232 6.30061   3
   5   6  -5 93.0152 7.05794   5
   5   6  -5 93.1020 7.62211   4
  -5  -6   5 81.4228 5.85777   1
   4   6  -5 27.5469 4.98046   4
   4   6  -5 28.5809 6.28221   5
   4   6  -5 17.2502 4.62127   5
   4   6  -5 14.6951 4.31698   3
  -4  -6   5 27.7465 5.36916   5
  -4  -6   5 23.2858 3.62624   2
  -4  -6   5 23.6149 3.76928   1
   3   6  -5 163.203 8.15229   5
   3   6  -5 160.745 7.73133   3
   3   6  -5 167.257 8.15366   4
   3   6  -5 163.163 8.05115   5
  -3  -6   5 155.183 5.38981   2
  -3  -6   5 154.039 5.29264   2
  -3  -6   5 148.296 7.68290   5
  -3  -6   5 165.192 7.41474   1
   2   6  -5 68.5501 4.98151   5
   2   6  -5 68.0747 5.27741   3
   2   6  -5 68.0013 5.56934   5
   2   6  -5 75.7725 5.55532   1
   2   6  -5 70.0231 5.32724   4
  -2  -6   5 70.3164 5.08298   5
  -2  -6   5 69.8098 2.88088   2
  -2  -6   5 69.4460 4.61822   1
  -2  -6   5 68.2886 2.84510   2
   1   6  -5 87.8138 5.39064   5
   1   6  -5 89.5339 5.35038   4
   1   6  -5 80.3269 5.32717   1
   1   6  -5 78.4979 5.44158   3
   1   6  -5 84.5486 5.12992   5
  -1  -6   5 81.7856 3.21526   2
  -1  -6   5 82.9344 3.31042   2
  -1  -6   5 89.0231 5.92119   4
  -1  -6   5 80.7958 4.77796   1
  -1  -6   5 75.0608 5.04412   5
   0   6  -5 86.3807 4.70947   4
   0   6  -5 84.2283 5.39593   5
   0   6  -5 84.4273 4.97177   5
   0   6  -5 79.9788 5.46130   1
   0   6  -5 95.0225 5.76755   3
   0  -6   5 87.5968 3.78723   2
   0  -6   5 91.9371 5.02675   5
   0  -6   5 92.5360 5.59704   4
  -1   6  -5 113.725 5.09527   4
  -1   6  -5 106.813 6.05730   5
  -1   6  -5 127.739 7.59205   1
  -1   6  -5 108.906 5.76253   5
  -1   6  -5 112.661 5.09514   2
  -1   6  -5 106.085 6.14854   3
   1  -6   5 112.286 6.19007   5
   1  -6   5 102.576 4.81602   2
   1  -6   5 119.159 5.39178   4
  -2   6  -5 35.0797 4.11777   5
  -2   6  -5 37.0790 4.09526   1
  -2   6  -5 34.9360 3.58839   5
  -2   6  -5 41.0817 2.60689   4
  -2   6  -5 41.6923 4.26349   2
  -2   6  -5 34.7624 4.32917   3
   2  -6   5 42.5044 3.94479   5
   2  -6   5 40.9407 3.84296   2
   2  -6   5 36.9965 2.81241   4
  -3   6  -5 0.78506 1.76979   5
  -3   6  -5 -0.7306 2.40153   2
  -3   6  -5 -0.9184 1.50943   5
  -3   6  -5 -1.0467 1.82766   3
  -3   6  -5 0.24519 1.77172   1
   3  -6   5 0.33022 1.74007   2
   3  -6   5 3.69987 1.87356   5
  -4   6  -5 130.610 7.71712   5
  -4   6  -5 144.093 7.56194   5
  -4   6  -5 143.441 8.21724   3
  -4   6  -5 141.826 7.70460   1
   4  -6   5 139.437 7.36711   5
   4  -6   5 138.218 7.48991   2
  -5   6  -5 56.5987 5.69604   1
  -5   6  -5 57.6138 5.64450   5
  -5   6  -5 64.0803 6.14731   3
   5  -6   5 61.9626 6.24542   2
  -6   6  -5 8.38721 3.03539   1
  -6   6  -5 6.93099 2.76488   5
  -6   6  -5 7.93164 3.43176   3
   6  -6   5 3.68098 3.13642   2
  -7   6  -5 12.7476 3.62015   5
  -7   6  -5 14.9449 3.92498   1
   7  -6   5 26.8194 8.31104   2
   8   5  -5 139.109 11.6296   4
   8   5  -5 119.503 10.0017   2
  -8  -5   5 122.131 13.3141   5
  -8  -5   5 117.475 10.5276   1
   7   5  -5 35.2579 8.99615   5
   7   5  -5 19.7827 4.92767   4
  -7  -5   5 29.5174 7.74410   5
  -7  -5   5 27.2933 5.76395   1
   6   5  -5 4.48619 3.67521   5
   6   5  -5 3.83084 2.57052   3
   6   5  -5 2.24772 3.01770   4
  -6  -5   5 2.07040 2.31084   1
  -6  -5   5 4.40456 2.98185   5
   5   5  -5 7.73755 2.42103   3
   5   5  -5 3.77495 2.45528   4
   5   5  -5 7.71158 2.85823   3
   5   5  -5 1.84613 1.91849   5
  -5  -5   5 6.02037 2.83378   2
  -5  -5   5 3.04951 1.96233   1
  -5  -5   5 5.11240 2.58507   5
   4   5  -5 8.75072 2.62834   5
   4   5  -5 6.05273 2.40813   4
   4   5  -5 4.54808 2.00182   3
   4   5  -5 6.47798 2.25952   5
  -4  -5   5 5.87672 1.75901   1
  -4  -5   5 10.9273 3.74051   2
  -4  -5   5 4.69241 1.82960   5
   3   5  -5 55.3291 4.95319   1
   3   5  -5 67.0353 5.21978   5
   3   5  -5 63.2269 5.26336   4
   3   5  -5 64.8376 5.43287   5
   3   5  -5 63.7770 4.53706   3
  -3  -5   5 49.8513 3.89249   2
  -3  -5   5 67.6008 4.42423   1
  -3  -5   5 60.6068 3.65065   2
   2   5  -5 49.6963 4.39501   1
   2   5  -5 51.9801 4.24456   3
   2   5  -5 56.0268 4.28316   5
   2   5  -5 54.7503 4.69756   5
   2   5  -5 54.2211 4.46174   4
  -2  -5   5 54.1669 3.07230   2
  -2  -5   5 57.8708 4.89488   3
  -2  -5   5 53.5684 2.95573   2
  -2  -5   5 52.7761 3.84454   1
  -2  -5   5 61.8900 4.58382   5
  -2  -5   5 56.7426 4.48348   5
  -2  -5   5 45.6976 5.71063   4
   1   5  -5 37.8079 3.63472   5
   1   5  -5 33.2015 3.39129   3
   1   5  -5 34.3700 3.60257   5
   1   5  -5 35.8968 3.35407   1
   1   5  -5 27.2515 3.25535   4
  -1  -5   5 40.0446 4.29855   4
  -1  -5   5 39.9967 4.23295   3
  -1  -5   5 39.4724 3.46198   5
  -1  -5   5 35.3583 2.45537   2
  -1  -5   5 33.2069 2.51290   2
  -1  -5   5 37.8974 3.73035   5
  -1  -5   5 31.7572 2.90587   1
   0   5  -5 1.00117 0.83321   5
   0   5  -5 1.85168 1.44008   1
   0   5  -5 0.70550 1.40523   3
   0   5  -5 -1.6147 1.00204   5
   0   5  -5 1.96150 1.28937   4
   0  -5   5 2.84106 1.95620   3
   0  -5   5 1.83845 0.91839   2
   0  -5   5 0.23240 1.23819   5
   0  -5   5 -1.8438 1.48716   5
   0  -5   5 3.15622 1.61086   4
  -1   5  -5 46.4329 3.99865   5
  -1   5  -5 52.4793 3.89003   5
  -1   5  -5 43.1998 3.44103   2
  -1   5  -5 45.2966 3.94572   3
  -1   5  -5 47.7782 3.22070   4
  -1   5  -5 47.7945 3.93356   1
   1  -5   5 45.7291 3.18195   2
   1  -5   5 39.0196 3.80076   5
   1  -5   5 50.1759 3.58667   4
   1  -5   5 47.4849 3.82605   5
  -2   5  -5 6.28957 2.05341   1
  -2   5  -5 6.23443 1.77129   4
  -2   5  -5 9.99347 3.20299   2
  -2   5  -5 9.72922 2.87734   1
  -2   5  -5 10.6798 2.71268   5
  -2   5  -5 12.1716 3.19094   3
  -2   5  -5 5.96546 1.63242   5
   2  -5   5 5.53054 1.63829   5
   2  -5   5 5.13516 1.53901   2
  -3   5  -5 11.3211 3.02478   5
  -3   5  -5 20.0435 3.55358   5
  -3   5  -5 19.4909 3.94037   3
  -3   5  -5 15.5420 3.45602   1
   3  -5   5 23.0911 4.71230   5
   3  -5   5 18.8412 3.53264   2
  -4   5  -5 36.2604 5.29510   5
  -4   5  -5 36.5395 4.32608   1
  -4   5  -5 28.9478 3.96330   5
  -4   5  -5 41.2804 4.75637   3
   4  -5   5 32.4982 4.47547   2
   4  -5   5 36.6450 6.31659   5
  -5   5  -5 -1.4044 1.95753   1
  -5   5  -5 -1.1608 2.49504   5
  -5   5  -5 -2.9390 2.00357   3
  -5   5  -5 0.07181 1.98859   5
   5  -5   5 -3.0107 2.31303   5
   5  -5   5 1.91434 2.34472   2
  -6   5  -5 0.38141 2.39971   1
  -6   5  -5 -3.9077 2.38941   3
  -6   5  -5 3.87205 2.48882   5
   6  -5   5 3.00636 2.85308   2
  -7   5  -5 10.9596 3.73178   1
  -7   5  -5 16.0087 4.44072   3
  -7   5  -5 19.4923 6.11785   5
   7  -5   5 11.5806 3.84940   2
  -8   5  -5 10.3637 4.38592   5
  -8   5  -5 15.2837 5.35442   3
  -8   5  -5 33.3573 8.06787   1
   8  -5   5 10.6281 4.79779   2
   8   4  -5 -4.3322 3.50586   4
   8   4  -5 3.60036 4.10810   2
  -8  -4   5 -1.4002 3.43866   1
  -8  -4   5 4.18916 5.02788   5
   7   4  -5 52.8217 7.68995   4
   7   4  -5 61.2460 7.34928   2
   7   4  -5 57.8060 9.74401   5
  -7  -4   5 59.5753 8.09407   5
  -7  -4   5 56.9383 6.79718   1
   6   4  -5 4.93214 3.02092   5
   6   4  -5 2.36201 2.01358   2
   6   4  -5 1.54317 2.61998   4
   6   4  -5 3.08091 1.93117   3
  -6  -4   5 -1.9198 2.39369   5
  -6  -4   5 2.67097 2.19372   1
   5   4  -5 184.090 7.26603   3
   5   4  -5 188.742 9.54213   4
   5   4  -5 179.577 7.52874   3
   5   4  -5 188.394 8.76098   5
  -5  -4   5 186.736 8.24234   1
  -5  -4   5 196.816 9.63669   5
  -5  -4   5 178.886 8.72468   2
  -5  -4   5 187.471 8.78186   5
   4   4  -5 366.904 12.8196   1
   4   4  -5 379.989 13.4048   5
   4   4  -5 397.278 12.2866   3
   4   4  -5 412.071 14.2839   4
   4   4  -5 397.069 13.3330   5
  -4  -4   5 387.677 12.4780   2
  -4  -4   5 381.555 13.4881   5
  -4  -4   5 407.839 12.8282   1
   3   4  -5 1457.96 38.3164   5
   3   4  -5 1481.63 37.9349   1
   3   4  -5 1410.48 39.1106   4
   3   4  -5 1433.41 37.8059   3
   3   4  -5 1465.16 38.4676   5
  -3  -4   5 1433.55 37.8487   1
  -3  -4   5 1432.10 38.3987   5
  -3  -4   5 1432.24 37.1082   2
  -3  -4   5 1470.50 38.6420   5
   2   4  -5 0.28773 1.27063   3
   2   4  -5 -0.9957 1.16352   4
   2   4  -5 -0.8375 1.20910   5
   2   4  -5 0.82127 1.08863   5
   2   4  -5 -1.1814 1.25449   1
  -2  -4   5 1.03583 1.40585   5
  -2  -4   5 0.48194 1.03635   2
  -2  -4   5 -0.6764 1.04709   5
  -2  -4   5 -0.2892 0.87035   1
  -2  -4   5 0.58780 0.78777   2
  -2  -4   5 -2.6419 1.65509   3
  -2  -4   5 -0.9322 1.79411   4
   1   4  -5 163.008 6.80979   3
   1   4  -5 162.714 6.75120   4
   1   4  -5 162.743 6.24564   1
   1   4  -5 161.133 6.68741   5
   1   4  -5 167.477 6.66069   5
  -1  -4   5 163.139 6.64131   5
  -1  -4   5 170.907 6.99010   3
  -1  -4   5 164.834 5.65650   2
  -1  -4   5 173.905 7.07488   4
  -1  -4   5 161.228 6.69461   5
  -1  -4   5 168.189 5.73827   2
  -1  -4   5 162.296 6.08445   1
   0   4  -5 2.34298 1.12338   4
   0   4  -5 2.17259 1.19141   5
   0   4  -5 2.29499 1.23174   1
   0   4  -5 2.88575 1.44630   3
   0   4  -5 1.99850 0.98028   5
   0  -4   5 1.59674 1.67049   3
   0  -4   5 7.96230 2.18500   5
   0  -4   5 2.34213 0.88298   2
   0  -4   5 2.42130 1.19125   5
   0  -4   5 2.71862 1.30607   4
  -1   4  -5 740.682 20.1718   5
  -1   4  -5 696.410 19.7185   5
  -1   4  -5 707.882 19.2845   2
  -1   4  -5 678.398 20.3015   3
  -1   4  -5 708.804 19.6116   1
   1  -4   5 723.478 19.8796   5
   1  -4   5 687.443 20.3556   3
   1  -4   5 697.557 19.4948   5
   1  -4   5 723.530 19.1469   4
   1  -4   5 687.883 19.2035   2
  -2   4  -5 1058.08 26.4761   4
  -2   4  -5 1045.67 27.8385   1
  -2   4  -5 1050.48 27.8631   1
  -2   4  -5 1045.77 27.8049   2
  -2   4  -5 1094.60 28.9337   3
  -2   4  -5 874.799 27.7587   5
  -2   4  -5 1052.95 27.8683   5
   2  -4   5 998.901 27.5221   5
   2  -4   5 1054.58 27.9055   5
   2  -4   5 1043.72 27.7656   2
   2  -4   5 1023.10 28.5790   3
   2  -4   5 1082.50 26.4703   4
  -3   4  -5 18.8723 2.95368   1
  -3   4  -5 25.6692 3.45781   5
  -3   4  -5 22.0970 3.82675   1
  -3   4  -5 13.5200 4.12024   2
  -3   4  -5 23.2418 3.67129   3
   3  -4   5 19.0449 3.35788   2
   3  -4   5 24.2184 3.51732   5
  -4   4  -5 0.39288 1.59279   3
  -4   4  -5 1.20142 1.56935   1
  -4   4  -5 -2.1161 1.86724   5
  -4   4  -5 -0.0121 1.52708   5
   4  -4   5 1.89862 1.77159   2
   4  -4   5 -1.3582 1.67906   5
  -5   4  -5 102.015 6.17547   5
  -5   4  -5 99.0446 6.37050   1
  -5   4  -5 98.4521 6.11635   3
  -5   4  -5 96.4818 7.46043   5
   5  -4   5 102.637 6.15552   5
   5  -4   5 107.621 6.81308   2
  -6   4  -5 -1.2770 1.86820   5
  -6   4  -5 -0.0830 2.24324   3
  -6   4  -5 1.12015 2.28989   1
   6  -4   5 2.59993 2.62520   2
  -7   4  -5 28.4721 5.84872   3
  -7   4  -5 23.6680 5.94213   5
  -7   4  -5 17.2613 6.00111   1
   7  -4   5 20.6189 6.96519   2
  -8   4  -5 99.0375 9.00528   1
  -8   4  -5 88.0967 9.00592   5
  -8   4  -5 100.034 8.95508   3
   8  -4   5 92.2018 9.62336   2
   8   3  -5 161.324 11.7347   4
   8   3  -5 149.449 11.2133   2
  -8  -3   5 150.483 9.78849   1
  -8  -3   5 148.381 12.1249   5
   7   3  -5 6.36210 3.07055   4
   7   3  -5 9.00542 3.44306   2
  -7  -3   5 9.85092 3.48947   5
  -7  -3   5 8.48742 2.47820   1
   6   3  -5 34.0208 5.41601   4
   6   3  -5 25.8915 4.83717   2
   6   3  -5 21.6894 5.34057   5
  -6  -3   5 28.2668 5.46143   5
  -6  -3   5 27.4743 4.27489   1
   5   3  -5 -0.4277 1.39538   3
   5   3  -5 -1.2175 1.78366   5
   5   3  -5 -0.0402 1.59892   4
   5   3  -5 2.45449 1.77923   3
   5   3  -5 0.46537 1.63131   2
  -5  -3   5 0.22279 2.84791   2
  -5  -3   5 -2.4910 2.56606   5
  -5  -3   5 2.72439 1.81557   5
  -5  -3   5 2.25905 1.50137   1
   4   3  -5 527.306 16.9490   4
   4   3  -5 496.404 15.4552   1
   4   3  -5 519.377 15.8900   5
   4   3  -5 512.588 14.6765   3
   4   3  -5 494.802 16.0011   5
  -4  -3   5 528.194 16.2903   5
  -4  -3   5 510.281 15.5985   2
  -4  -3   5 523.250 15.5073   1
  -4  -3   5 524.222 16.2995   5
   3   3  -5 646.724 18.7810   5
   3   3  -5 656.015 18.7289   5
   3   3  -5 635.512 19.4997   4
   3   3  -5 646.310 18.0948   3
   3   3  -5 639.734 18.1844   1
  -3  -3   5 663.519 18.9341   5
  -3  -3   5 660.211 19.0892   5
  -3  -3   5 680.824 18.3129   1
  -3  -3   5 602.684 19.3935   4
  -3  -3   5 659.007 18.2574   2
   2   3  -5 57.0047 3.50437   3
   2   3  -5 56.9416 4.01043   5
   2   3  -5 59.9031 3.69212   5
   2   3  -5 58.7110 3.49838   1
   2   3  -5 59.1205 4.11094   4
  -2  -3   5 57.8540 3.23099   2
  -2  -3   5 58.9286 3.49373   2
  -2  -3   5 54.0609 4.03586   5
  -2  -3   5 59.3845 3.18047   1
  -2  -3   5 57.9930 4.52164   4
  -2  -3   5 62.7200 3.98102   5
  -2  -3   5 61.0699 3.78774   3
   1   3  -5 38.4504 2.55355   1
   1   3  -5 38.6988 2.85190   5
   1   3  -5 38.5246 2.96713   3
   1   3  -5 36.1344 2.97549   5
   1   3  -5 42.2365 3.35172   4
  -1  -3   5 37.8877 3.39464   4
  -1  -3   5 34.5129 3.17622   5
  -1  -3   5 41.5732 3.14189   5
  -1  -3   5 39.8780 2.75094   2
  -1  -3   5 39.7073 2.77393   2
  -1  -3   5 35.4441 2.83523   1
  -1  -3   5 41.2552 3.38663   3
   0   3  -5 392.982 10.7566   1
   0   3  -5 364.204 11.3764   5
   0   3  -5 360.934 11.1869   4
   0   3  -5 351.160 11.4305   3
   0  -3   5 364.730 11.2227   4
   0  -3   5 350.058 11.0216   5
   0  -3   5 372.963 11.3630   5
   0  -3   5 356.551 11.4634   3
  -1   3  -5 46.4228 3.46694   3
  -1   3  -5 50.6759 3.04191   1
  -1   3  -5 51.8239 3.25125   5
  -1   3  -5 43.9965 3.21403   2
  -1   3  -5 44.0158 3.31907   4
  -1   3  -5 47.6166 3.36145   5
   1  -3   5 46.6827 3.18739   5
   1  -3   5 43.5841 3.22875   5
   1  -3   5 45.2942 3.00104   4
   1  -3   5 47.9746 2.95523   2
   1  -3   5 43.8522 3.49915   3
  -2   3  -5 64.6867 3.03789   4
  -2   3  -5 67.5007 4.32616   3
  -2   3  -5 67.8866 3.91761   1
  -2   3  -5 68.6344 3.76526   1
  -2   3  -5 68.5334 4.07576   2
  -2   3  -5 63.7199 4.15451   5
  -2   3  -5 69.9697 3.96537   5
   2  -3   5 64.5362 4.26187   3
   2  -3   5 68.1899 3.95434   5
   2  -3   5 65.6428 3.10927   4
   2  -3   5 65.3165 3.77126   5
   2  -3   5 65.1424 3.86850   2
  -3   3  -5 93.2645 4.80594   1
  -3   3  -5 90.5918 5.25840   3
  -3   3  -5 98.3771 5.29719   5
  -3   3  -5 97.9090 4.93496   5
  -3   3  -5 88.0747 5.42895   2
   3  -3   5 93.9206 3.42987   4
   3  -3   5 87.9067 5.48762   3
   3  -3   5 97.8104 4.73666   5
   3  -3   5 96.5469 5.12871   2
  -4   3  -5 83.8865 5.60188   5
  -4   3  -5 89.7803 5.01172   1
  -4   3  -5 84.9305 5.15261   5
  -4   3  -5 85.4679 5.45357   3
   4  -3   5 90.1871 6.20536   5
   4  -3   5 88.6512 5.12274   5
   4  -3   5 77.3381 5.24408   2
  -5   3  -5 0.19849 1.36328   1
  -5   3  -5 2.08232 2.13070   5
  -5   3  -5 -0.4232 1.63871   5
  -5   3  -5 1.25277 1.87078   3
   5  -3   5 0.45252 1.76364   2
   5  -3   5 1.74635 1.90876   5
  -6   3  -5 28.5509 4.98453   5
  -6   3  -5 26.0132 7.22220   5
  -6   3  -5 35.2542 4.87740   3
  -6   3  -5 22.1918 4.49584   1
   6  -3   5 37.1013 4.95041   5
   6  -3   5 25.3332 5.22732   2
  -7   3  -5 8.70505 3.32203   3
  -7   3  -5 19.6837 5.38043   1
  -7   3  -5 18.0222 5.43532   5
   7  -3   5 9.66962 3.46561   2
  -8   3  -5 1.08306 3.34575   3
  -8   3  -5 0.78224 3.27919   5
  -8   3  -5 -4.0203 2.71660   1
   8  -3   5 -2.7792 3.00974   2
   8   2  -5 4.00535 3.76470   4
   8   2  -5 0.89551 3.49195   2
  -8  -2   5 -3.5578 3.11573   5
  -8  -2   5 3.02480 3.26001   1
   7   2  -5 22.6870 6.20215   4
   7   2  -5 12.5975 3.24871   2
  -7  -2   5 17.0110 5.36153   5
  -7  -2   5 21.4825 5.09528   1
   6   2  -5 57.6919 6.04505   4
   6   2  -5 64.0497 5.85597   2
   6   2  -5 64.5510 5.91949   5
  -6  -2   5 65.1576 5.26733   1
  -6  -2   5 45.8154 7.23170   5
  -6  -2   5 61.1074 5.50536   5
   5   2  -5 67.4087 3.04997   3
   5   2  -5 68.4850 5.48352   4
   5   2  -5 67.3513 4.76060   5
   5   2  -5 71.8634 5.81662   1
   5   2  -5 65.4560 5.05393   2
  -5  -2   5 73.6220 4.67805   1
  -5  -2   5 63.5965 6.04991   5
  -5  -2   5 70.3101 5.38833   5
   4   2  -5 26.0377 3.69531   4
   4   2  -5 22.4350 2.99515   2
   4   2  -5 21.7338 4.09638   5
   4   2  -5 24.6907 3.72388   1
   4   2  -5 23.8561 2.27867   3
   4   2  -5 21.4616 3.39512   5
  -4  -2   5 22.2925 4.30488   2
  -4  -2   5 28.4922 2.73478   1
  -4  -2   5 23.0753 3.99783   5
  -4  -2   5 26.5503 3.55637   5
   3   2  -5 318.655 10.6354   5
   3   2  -5 329.112 11.5374   4
   3   2  -5 344.504 10.3185   1
   3   2  -5 333.930 10.7554   5
  -3  -2   5 332.811 10.9356   5
  -3  -2   5 336.927 9.96500   3
  -3  -2   5 330.176 11.5214   4
  -3  -2   5 334.826 10.1824   1
  -3  -2   5 325.264 10.9458   5
  -3  -2   5 331.280 10.7218   2
   2   2  -5 109.258 4.86405   5
   2   2  -5 110.303 5.45812   4
   2   2  -5 117.572 4.41633   1
   2   2  -5 111.470 4.60992   3
   2   2  -5 119.651 5.10215   5
  -2  -2   5 113.087 4.74079   3
  -2  -2   5 112.496 5.01645   2
  -2  -2   5 106.748 5.00879   5
  -2  -2   5 113.009 4.84689   1
  -2  -2   5 107.852 5.44597   4
  -2  -2   5 111.941 5.14228   5
   1   2  -5 22.9981 2.28020   3
   1   2  -5 26.3965 2.50381   4
   1   2  -5 28.5005 1.90988   1
   1   2  -5 27.2460 2.51201   5
   1   2  -5 25.6352 2.56940   5
  -1  -2   5 26.9636 2.79412   4
  -1  -2   5 28.4801 2.43669   2
  -1  -2   5 28.1663 1.86726   1
  -1  -2   5 22.3321 2.47738   3
  -1  -2   5 25.7253 2.54250   5
  -1  -2   5 22.8466 2.47143   2
   0   2  -5 357.215 10.7693   5
   0   2  -5 342.804 10.5247   5
   0   2  -5 336.009 10.7888   3
   0   2  -5 333.636 10.6193   4
   0   2  -5 367.350 9.83329   1
   0  -2   5 348.703 10.7455   4
   0  -2   5 346.938 10.7660   5
   0  -2   5 357.121 10.9071   3
   0  -2   5 355.601 10.6655   5
  -1   2  -5 328.544 9.41473   1
  -1   2  -5 330.973 10.0880   5
  -1   2  -5 310.157 9.93378   4
  -1   2  -5 323.878 10.2351   5
  -1   2  -5 329.181 9.45285   1
  -1   2  -5 333.491 10.0860   2
  -1   2  -5 311.067 10.3939   3
   1  -2   5 310.835 9.99773   2
   1  -2   5 338.522 10.1259   5
   1  -2   5 324.950 9.77863   4
   1  -2   5 332.793 10.2487   5
   1  -2   5 341.684 10.4979   3
  -2   2  -5 70.8522 4.10909   3
  -2   2  -5 70.1845 4.00660   2
  -2   2  -5 69.2436 3.73101   5
  -2   2  -5 68.6633 3.38826   1
  -2   2  -5 70.4727 3.21092   4
   2  -2   5 73.3391 4.05080   3
   2  -2   5 64.1347 3.16821   4
   2  -2   5 69.6779 3.95108   5
   2  -2   5 67.2365 3.81000   2
   2  -2   5 75.6415 3.79964   5
  -3   2  -5 9.99514 2.62669   3
  -3   2  -5 10.3808 2.35319   5
  -3   2  -5 10.3223 2.72483   5
  -3   2  -5 10.3741 2.80897   2
  -3   2  -5 10.6763 2.09301   1
   3  -2   5 11.1969 2.26640   5
   3  -2   5 14.1317 2.97317   3
   3  -2   5 12.6103 2.60296   2
   3  -2   5 11.1759 1.73929   4
   3  -2   5 15.6614 2.58673   5
  -4   2  -5 92.6497 5.42933   5
  -4   2  -5 80.0312 6.12231   2
  -4   2  -5 94.5120 5.11458   5
  -4   2  -5 94.5824 4.96952   1
  -4   2  -5 84.1006 5.06295   3
   4  -2   5 90.5292 3.54190   4
   4  -2   5 89.1906 5.58892   2
   4  -2   5 90.1501 5.15737   5
   4  -2   5 88.9225 3.48060   4
   4  -2   5 93.4534 5.05619   5
   4  -2   5 89.1759 5.55297   3
  -5   2  -5 364.098 12.6657   5
  -5   2  -5 354.749 12.1340   5
  -5   2  -5 349.415 12.1485   1
  -5   2  -5 346.675 12.1889   3
   5  -2   5 348.280 9.69111   4
   5  -2   5 340.310 9.66816   4
   5  -2   5 353.896 12.8994   2
   5  -2   5 336.988 12.0127   5
  -6   2  -5 42.4644 6.81245   5
  -6   2  -5 49.5112 4.75361   3
  -6   2  -5 53.5978 4.87792   1
  -6   2  -5 56.3587 5.06251   5
   6  -2   5 48.4825 5.24038   5
   6  -2   5 54.6633 5.73932   2
  -7   2  -5 3.70286 2.45922   5
  -7   2  -5 -0.4976 2.43272   3
  -7   2  -5 -0.2093 2.13382   1
   7  -2   5 0.95663 2.56462   5
   7  -2   5 -1.1870 2.59052   2
  -8   2  -5 1.67636 2.76333   3
  -8   2  -5 -4.2662 2.67980   5
  -8   2  -5 1.88994 2.58202   1
   8  -2   5 8.74126 3.63704   2
  -9   2  -5 3.35553 4.35830   3
  -9   2  -5 9.13855 4.25245   5
   9  -2   5 6.10364 3.95386   2
   8   1  -5 32.8189 7.76463   4
   8   1  -5 19.0254 4.72429   2
  -8  -1   5 16.8459 4.05495   5
  -8  -1   5 13.7300 3.42688   1
   7   1  -5 1.28595 2.63048   4
   7   1  -5 4.01714 3.03876   2
  -7  -1   5 -2.5797 2.34366   5
  -7  -1   5 -0.9673 2.16102   1
   6   1  -5 35.4179 4.66331   5
   6   1  -5 30.2958 5.18424   4
   6   1  -5 36.3551 5.41815   2
  -6  -1   5 37.1348 4.31877   1
  -6  -1   5 33.5855 6.28523   5
  -6  -1   5 34.1105 4.60684   5
   5   1  -5 83.4080 4.93182   5
   5   1  -5 87.9725 5.90514   2
   5   1  -5 82.6483 5.96559   4
   5   1  -5 86.0545 5.42830   1
  -5  -1   5 87.2887 4.97593   1
  -5  -1   5 79.2964 5.97887   5
  -5  -1   5 93.6330 5.66020   5
   4   1  -5 95.9560 3.47117   3
   4   1  -5 93.9427 4.88310   1
   4   1  -5 90.6035 5.62084   4
   4   1  -5 93.2602 5.13204   5
   4   1  -5 93.8498 5.43315   2
   4   1  -5 93.5886 4.86774   5
  -4  -1   5 102.532 4.79466   1
  -4  -1   5 96.1149 5.67382   2
  -4  -1   5 95.1395 5.53412   5
  -4  -1   5 102.270 5.53114   5
   3   1  -5 113.938 5.90229   4
   3   1  -5 122.497 5.24375   5
   3   1  -5 118.759 4.82469   1
   3   1  -5 121.174 5.07665   5
   3   1  -5 115.005 4.28216   3
  -3  -1   5 119.130 5.26461   5
  -3  -1   5 105.549 5.92678   4
  -3  -1   5 114.721 5.59530   2
  -3  -1   5 122.873 4.71380   1
  -3  -1   5 117.720 4.33746   3
   2   1  -5 154.074 6.49544   4
   2   1  -5 153.490 5.68629   5
   2   1  -5 160.605 5.48256   3
   2   1  -5 139.316 5.07368   1
   2   1  -5 157.013 5.91276   5
  -2  -1   5 152.072 5.95895   5
  -2  -1   5 155.060 6.35382   4
  -2  -1   5 160.542 5.97311   5
  -2  -1   5 156.921 5.13029   1
  -2  -1   5 153.465 5.38529   3
  -2  -1   5 162.888 6.20994   2
   1   1  -5 10.9588 1.84383   5
   1   1  -5 12.1193 1.28198   1
   1   1  -5 10.5512 1.85538   5
   1   1  -5 13.4075 2.19904   4
   1   1  -5 9.25528 1.97209   3
  -1  -1   5 10.6910 2.05180   2
  -1  -1   5 12.2564 1.14061   1
  -1  -1   5 10.6989 1.83161   5
  -1  -1   5 13.1192 1.92041   4
  -1  -1   5 12.4596 1.74196   3
  -1  -1   5 9.48323 1.72289   2
  -1  -1   5 8.54895 1.69086   5
   0   1  -5 4283.67 105.424   1
   0   1  -5 4287.71 106.442   5
   0   1  -5 4367.34 106.995   4
   0   1  -5 4261.83 106.807   3
   0  -1   5 4030.58 107.554   5
   0  -1   5 4416.68 106.856   4
   0  -1   5 4392.72 106.793   2
   0  -1   5 4502.06 106.580   5
   0  -1   5 4574.23 106.875   3
  -1   1  -5 759.352 20.6051   5
  -1   1  -5 758.455 19.5295   1
  -1   1  -5 757.380 20.3660   5
  -1   1  -5 787.338 19.5691   1
  -1   1  -5 776.817 20.8160   2
  -1   1  -5 750.643 20.9239   3
   1  -1   5 754.718 20.7102   2
   1  -1   5 766.067 20.4329   4
   1  -1   5 770.522 20.7281   5
   1  -1   5 776.581 20.8792   3
   1  -1   5 768.222 20.4785   5
  -2   1  -5 640.069 18.2919   5
  -2   1  -5 690.713 18.7316   2
  -2   1  -5 665.016 17.8177   4
  -2   1  -5 665.979 17.5994   1
  -2   1  -5 658.938 18.1377   5
   2  -1   5 657.199 18.3798   5
   2  -1   5 669.794 18.6855   3
   2  -1   5 668.116 17.7839   4
   2  -1   5 653.753 18.5768   2
   2  -1   5 661.238 18.1737   5
  -3   1  -5 73.6184 4.49941   2
  -3   1  -5 77.4476 4.13811   5
  -3   1  -5 76.1801 3.71381   1
  -3   1  -5 80.3458 4.23956   5
  -3   1  -5 74.9414 4.25675   3
   3  -1   5 82.8502 4.09841   5
   3  -1   5 75.3425 3.79992   1
   3  -1   5 80.8587 4.22581   3
   3  -1   5 76.1150 4.11852   5
   3  -1   5 78.5469 4.53158   2
   3  -1   5 74.8815 3.43199   4
  -4   1  -5 46.2275 3.59383   5
  -4   1  -5 41.8934 3.30578   1
  -4   1  -5 46.6141 4.00304   5
  -4   1  -5 40.8338 3.55463   3
   4  -1   5 45.4761 3.60667   5
   4  -1   5 46.2495 3.47187   1
   4  -1   5 41.1041 3.69806   5
   4  -1   5 43.2370 3.95729   2
   4  -1   5 43.2519 2.75121   4
   4  -1   5 42.4233 2.84338   4
   4  -1   5 43.6207 3.88319   3
  -5   1  -5 46.4951 3.97702   1
  -5   1  -5 43.1576 4.94791   5
  -5   1  -5 50.4145 4.41761   5
  -5   1  -5 49.0703 4.12735   3
   5  -1   5 45.5687 3.28191   4
   5  -1   5 48.3708 4.73024   2
   5  -1   5 35.5215 4.86240   1
   5  -1   5 51.0337 4.46738   5
   5  -1   5 44.5210 4.54771   5
   5  -1   5 52.8966 3.08311   4
   5  -1   5 47.2069 4.62468   3
  -6   1  -5 44.0899 4.57232   3
  -6   1  -5 38.8547 4.41568   1
  -6   1  -5 38.4825 5.89341   5
  -6   1  -5 48.8999 5.00667   5
   6  -1   5 46.2092 5.35039   2
   6  -1   5 43.5670 4.05467   4
   6  -1   5 45.9520 4.96349   5
   6  -1   5 48.3586 3.76759   4
  -7   1  -5 4.10997 2.73270   3
  -7   1  -5 4.52049 2.01340   1
  -7   1  -5 3.14056 2.36029   5
  -7   1  -5 -3.8526 4.23358   5
   7  -1   5 4.75237 1.72615   4
   7  -1   5 7.47906 2.90226   5
   7  -1   5 4.37413 2.59142   4
   7  -1   5 7.19528 2.74679   2
  -8   1  -5 13.6753 3.47049   5
  -8   1  -5 28.0333 5.55388   3
   8  -1   5 18.5169 3.78443   4
   8  -1   5 23.8302 6.82578   2
  -9   1  -5 4.50019 4.43154   3
  -9   1  -5 -0.0902 3.00179   1
  -9   1  -5 3.71835 4.49881   5
   9  -1   5 -3.9751 3.41135   2
   8   0  -5 8.23223 3.83139   4
   8   0  -5 7.97509 4.29591   2
  -8   0   5 3.07540 3.14937   1
  -8   0   5 1.16647 3.60669   5
   7   0  -5 1.94882 2.67349   4
   7   0  -5 22.5535 6.71042   2
  -7   0   5 4.57136 2.23730   1
  -7   0   5 1.17483 2.43900   5
   6   0  -5 -1.4880 1.84076   5
   6   0  -5 1.23635 2.07536   4
   6   0  -5 2.63815 2.37298   2
  -6   0   5 1.31961 2.21821   5
  -6   0   5 -2.1142 1.83144   5
  -6   0   5 -2.3868 1.53141   1
   5   0  -5 15.3125 3.91762   4
   5   0  -5 15.7609 3.77670   2
   5   0  -5 19.1075 4.10222   1
   5   0  -5 18.7766 3.52306   5
  -5   0   5 20.4064 3.98002   5
  -5   0   5 18.2985 3.58654   5
  -5   0   5 21.8373 3.14470   1
   4   0  -5 -0.1804 1.48839   1
   4   0  -5 -0.7904 1.23561   2
   4   0  -5 -1.5977 1.19365   5
   4   0  -5 0.06987 1.38437   4
  -4   0   5 -0.3328 0.86789   1
  -4   0   5 -0.6781 1.98293   2
  -4   0   5 -1.0631 1.30915   5
  -4   0   5 -0.2678 1.18848   5
   3   0  -5 59.8212 2.52443   3
   3   0  -5 61.2783 4.25874   4
   3   0  -5 60.9519 3.97022   2
   3   0  -5 60.8429 3.25898   5
   3   0  -5 50.3725 3.77382   5
   3   0  -5 58.7451 3.24553   1
  -3   0   5 62.2162 3.12133   1
  -3   0   5 62.1699 3.56941   5
  -3   0   5 61.1922 4.06063   4
  -3   0   5 58.1649 4.33796   2
  -3   0   5 61.2267 2.57885   3
   2   0  -5 44.5250 2.22213   1
   2   0  -5 44.3667 3.33409   4
   2   0  -5 40.5554 2.59028   5
   2   0  -5 42.0793 2.31139   3
  -2   0   5 41.8749 2.84469   5
  -2   0   5 41.1580 2.38538   3
  -2   0   5 41.8455 2.73514   5
  -2   0   5 43.7798 3.38054   2
  -2   0   5 46.1023 2.22311   1
  -2   0   5 42.8780 3.28774   4
   1   0  -5 162.257 5.66101   3
   1   0  -5 163.639 6.37611   4
   1   0  -5 175.990 7.08369   5
   1   0  -5 165.292 5.60519   5
   1   0  -5 165.544 4.65346   1
  -1   0   5 162.547 6.18009   2
  -1   0   5 166.863 5.80613   5
  -1   0   5 161.797 5.62708   3
  -1   0   5 170.915 6.20709   2
  -1   0   5 163.412 6.30426   4
  -1   0   5 163.527 5.87540   5
  -1   0   5 166.901 4.65908   1
   0   0  -5 32.5130 2.11053   5
   0   0  -5 31.3972 2.49092   4
   0   0  -5 29.0378 2.34070   3
   0   0  -5 35.2015 2.10591   5
   0   0   5 32.2417 2.22358   5
   0   0   5 30.5147 2.37843   2
   0   0   5 34.1795 2.48787   4
   0   0   5 33.0364 2.27656   5
   0   0   5 30.6071 2.27183   3
  -1   0  -5 776.796 18.6217   1
  -1   0  -5 766.313 18.6039   1
  -1   0  -5 775.573 20.3530   2
  -1   0  -5 747.504 19.8153   5
  -1   0  -5 630.368 20.6502   4
  -1   0  -5 702.630 20.1419   3
  -1   0  -5 749.214 19.6500   5
   1   0   5 773.243 19.8168   5
   1   0   5 752.877 20.1698   3
   1   0   5 764.285 20.0493   4
   1   0   5 734.449 20.2275   2
  -2   0  -5 508.374 14.1640   5
  -2   0  -5 485.462 14.6772   3
  -2   0  -5 503.487 14.7375   2
  -2   0  -5 507.554 14.3383   5
  -2   0  -5 512.855 13.5217   1
   2   0   5 515.743 14.8663   2
   2   0   5 511.753 14.1850   4
   2   0   5 498.152 13.4410   1
   2   0   5 503.310 14.6774   3
  -3   0  -5 3.57693 1.04407   5
  -3   0  -5 3.81855 1.25012   3
  -3   0  -5 1.35501 1.18037   5
  -3   0  -5 3.20692 1.08508   2
  -3   0  -5 5.19332 1.54336   1
   3   0   5 2.68979 1.09414   4
   3   0   5 2.99316 0.95606   1
   3   0   5 6.73854 1.85326   5
   3   0   5 3.51632 1.22386   2
   3   0   5 3.34313 1.36595   3
  -4   0  -5 4.55304 1.56650   5
  -4   0  -5 5.52789 1.84037   2
  -4   0  -5 4.33712 1.30289   1
  -4   0  -5 6.88647 2.20324   5
  -4   0  -5 4.49087 1.47317   3
   4   0   5 4.16225 1.48932   1
   4   0   5 2.89350 1.91644   5
   4   0   5 4.97974 1.66591   5
   4   0   5 7.21255 2.33519   2
   4   0   5 7.53303 2.06538   4
   4   0   5 4.76051 1.24801   4
   4   0   5 8.72225 2.58569   3
  -5   0  -5 59.4370 4.67734   5
  -5   0  -5 50.0712 4.12533   3
  -5   0  -5 57.5174 4.06873   1
  -5   0  -5 50.0583 4.10934   5
   5   0   5 53.1996 4.70126   2
   5   0   5 60.2444 4.64828   5
   5   0   5 53.5582 4.57248   5
   5   0   5 39.8947 4.46286   3
   5   0   5 58.0584 3.87875   4
   5   0   5 52.6922 3.60214   4
   5   0   5 51.7698 4.78997   1
  -6   0  -5 2.01644 1.95127   3
  -6   0  -5 0.12097 1.77822   5
  -6   0  -5 4.13279 2.79940   5
  -6   0  -5 2.03100 1.58879   1
   6   0   5 2.67457 1.97101   4
   6   0   5 3.00475 1.88763   5
   6   0   5 3.37092 1.41129   4
   6   0   5 4.43801 2.21902   2
  -7   0  -5 11.6596 3.05829   5
  -7   0  -5 10.8810 2.58688   1
  -7   0  -5 16.3223 4.03459   3
  -7   0  -5 28.0142 7.41670   5
   7   0   5 17.5255 5.39164   2
   7   0   5 15.7628 3.38465   4
   7   0   5 7.07242 2.69369   5
   7   0   5 18.2043 5.03065   4
  -8   0  -5 24.9239 6.16639   5
  -8   0  -5 19.3654 4.88538   1
  -8   0  -5 18.1982 5.39382   3
   8   0   5 11.5695 4.15655   5
   8   0   5 21.4198 3.92514   4
  -9   0  -5 1.38982 3.65343   5
  -9   0  -5 2.00329 3.98408   3
  -9   0  -5 -4.3102 3.04785   1
   9   0   5 3.05463 4.07488   2
   8  -1  -5 29.6023 9.20933   2
   8  -1  -5 26.9018 7.87459   4
  -8   1   5 13.3027 3.52956   5
  -8   1   5 8.90178 3.38632   1
   7  -1  -5 0.63767 2.35334   4
   7  -1  -5 5.85181 3.37918   2
  -7   1   5 5.67438 2.59381   1
  -7   1   5 2.97313 2.51830   5
   6  -1  -5 8.38594 2.72665   2
   6  -1  -5 8.05245 2.11319   5
   6  -1  -5 9.25084 2.56859   4
  -6   1   5 7.50966 3.07980   5
  -6   1   5 8.87467 2.49055   5
  -6   1   5 4.66497 1.89489   1
   5  -1  -5 47.6192 4.97699   2
   5  -1  -5 54.4353 4.93339   4
   5  -1  -5 37.0338 5.10330   1
   5  -1  -5 44.5338 4.00172   5
  -5   1   5 51.6188 4.76934   5
  -5   1   5 48.8512 4.04766   1
  -5   1   5 51.0182 4.23748   5
   4  -1  -5 57.2227 3.59584   5
   4  -1  -5 63.1801 4.85150   2
   4  -1  -5 59.4844 4.15654   1
   4  -1  -5 56.6343 4.49432   4
  -4   1   5 61.7849 3.88987   5
  -4   1   5 55.2923 4.00463   5
  -4   1   5 63.4709 5.02838   4
  -4   1   5 58.2539 3.62751   1
   3  -1  -5 36.9526 2.77867   1
   3  -1  -5 31.6153 2.49796   5
   3  -1  -5 32.6840 3.44686   4
   3  -1  -5 31.4197 2.38519   5
  -3   1   5 35.9485 3.52111   4
  -3   1   5 35.7489 2.45904   1
  -3   1   5 33.7384 2.67064   5
  -3   1   5 36.2909 2.95550   5
  -3   1   5 29.3719 3.70893   2
   2  -1  -5 2.28137 0.84556   3
   2  -1  -5 2.60209 0.74271   1
   2  -1  -5 2.16652 1.14728   4
   2  -1  -5 1.74569 0.76626   5
   2  -1  -5 2.85845 0.80763   5
  -2   1   5 3.43721 1.16166   1
  -2   1   5 3.38117 0.85963   3
  -2   1   5 6.39601 2.19604   4
  -2   1   5 1.93954 0.94817   5
  -2   1   5 2.54586 1.11711   2
  -2   1   5 2.14254 0.77100   5
   1  -1  -5 49.0524 2.62750   3
   1  -1  -5 47.7842 3.17060   4
   1  -1  -5 48.8774 2.40369   5
   1  -1  -5 51.8057 2.45834   5
  -1   1   5 52.1693 3.19353   2
  -1   1   5 47.6764 2.62983   5
  -1   1   5 49.3775 2.67256   3
  -1   1   5 48.4117 2.61270   5
  -1   1   5 48.5621 3.30290   4
   0  -1  -5 37.8447 2.14556   5
   0  -1  -5 41.9138 2.22261   5
   0  -1  -5 39.2604 2.75856   4
   0   1   5 40.6003 2.40381   5
   0   1   5 40.0989 2.32928   5
   0   1   5 41.4917 2.69821   4
   0   1   5 42.2162 2.53760   3
   0   1   5 40.6160 2.82957   2
  -1  -1  -5 443.439 12.0691   5
  -1  -1  -5 425.043 12.6856   2
  -1  -1  -5 420.421 12.6047   3
  -1  -1  -5 429.764 12.7212   4
   1   1   5 418.084 12.7571   2
   1   1   5 440.274 12.1186   5
   1   1   5 436.554 12.6387   4
   1   1   5 428.337 12.2490   5
   1   1   5 447.078 12.6355   3
  -2  -1  -5 16.1884 1.94349   5
  -2  -1  -5 15.0586 1.82065   5
  -2  -1  -5 15.0943 1.40726   1
  -2  -1  -5 18.8877 2.10066   3
  -2  -1  -5 20.0524 2.31919   2
   2   1   5 17.3799 1.95364   5
   2   1   5 14.8943 1.94276   5
   2   1   5 16.7105 2.13398   2
   2   1   5 15.9568 1.45031   1
   2   1   5 14.4096 2.08076   4
   2   1   5 15.2442 2.23369   3
  -3  -1  -5 46.0722 2.89195   5
  -3  -1  -5 41.2596 3.21091   3
  -3  -1  -5 39.4736 3.03686   5
  -3  -1  -5 42.7535 3.29541   2
   3   1   5 41.8001 2.92771   4
   3   1   5 46.5864 3.22621   3
   3   1   5 39.4309 2.65539   1
   3   1   5 40.4221 3.16413   2
   3   1   5 41.0570 3.15287   5
  -4  -1  -5 37.7547 3.44345   5
  -4  -1  -5 27.3581 3.08240   3
  -4  -1  -5 28.8414 2.67728   1
  -4  -1  -5 26.1930 2.89229   5
   4   1   5 31.5025 3.44571   5
   4   1   5 29.0172 2.98420   1
   4   1   5 28.2141 2.99859   2
   4   1   5 30.9866 3.47322   3
   4   1   5 33.1725 3.30559   5
   4   1   5 30.5728 2.91502   4
   4   1   5 35.1222 2.95852   4
  -5  -1  -5 4.56883 1.51517   1
  -5  -1  -5 -0.5970 2.20994   5
  -5  -1  -5 5.61879 1.64270   3
   5   1   5 1.81538 1.39653   5
   5   1   5 5.13514 1.74513   2
   5   1   5 4.00485 1.46309   4
   5   1   5 6.60686 1.70487   5
   5   1   5 3.06335 2.04156   3
   5   1   5 5.54535 1.80750   1
   5   1   5 2.66661 1.75809   4
  -6  -1  -5 88.6398 5.58625   5
  -6  -1  -5 92.8257 5.48329   1
  -6  -1  -5 97.4028 5.74805   3
  -6  -1  -5 93.3367 6.67513   5
   6   1   5 90.1583 6.00224   4
   6   1   5 89.0035 5.82221   5
   6   1   5 84.4942 4.85411   4
   6   1   5 94.7687 6.64995   5
   6   1   5 90.6102 6.37121   2
  -7  -1  -5 20.0766 5.03109   5
  -7  -1  -5 15.9990 4.38530   1
  -7  -1  -5 6.27916 2.52796   3
   7   1   5 7.07225 1.82066   4
   7   1   5 4.29712 2.22960   5
   7   1   5 13.8201 4.68459   2
  -8  -1  -5 2.31174 2.82284   3
  -8  -1  -5 2.35353 2.72970   1
  -8  -1  -5 1.13036 2.65276   5
   8   1   5 3.54947 3.01475   2
   8   1   5 1.80275 3.33373   5
   8   1   5 -0.0742 2.09719   4
  -9  -1  -5 -2.0987 3.43880   5
  -9  -1  -5 -2.4125 3.42061   3
  -9  -1  -5 1.07048 3.15674   1
   9   1   5 1.15855 3.70438   2
   8  -2  -5 13.4091 4.70660   2
   8  -2  -5 7.26359 3.95577   4
  -8   2   5 1.95606 3.08048   1
  -8   2   5 5.15683 3.11830   5
   7  -2  -5 31.8090 7.24580   2
   7  -2  -5 23.8548 6.44133   4
  -7   2   5 18.5214 5.21860   1
  -7   2   5 22.8460 5.06774   5
   6  -2  -5 0.75449 2.30452   4
   6  -2  -5 2.14370 2.54603   2
   6  -2  -5 -0.3493 1.98795   5
  -6   2   5 0.92457 1.86807   5
  -6   2   5 2.66685 1.80616   1
  -6   2   5 2.78358 2.36679   5
   5  -2  -5 73.5533 5.57925   4
   5  -2  -5 78.6294 4.20660   5
   5  -2  -5 74.3388 6.00694   1
   5  -2  -5 74.4346 5.82776   2
  -5   2   5 80.2729 4.97448   5
  -5   2   5 75.4654 4.87352   5
  -5   2   5 71.2483 4.70396   1
   4  -2  -5 4.89358 1.88135   2
   4  -2  -5 3.01447 1.12243   5
   4  -2  -5 3.57368 1.68124   1
   4  -2  -5 4.37140 1.76926   4
  -4   2   5 3.49583 1.26921   5
  -4   2   5 8.18791 2.22270   1
  -4   2   5 2.34451 1.19996   5
  -4   2   5 6.60401 2.00631   4
   3  -2  -5 41.7681 3.72292   4
   3  -2  -5 35.5155 2.36630   5
   3  -2  -5 36.2329 2.22282   5
   3  -2  -5 40.2028 3.60269   2
   3  -2  -5 41.1412 2.87129   1
  -3   2   5 36.3521 3.71194   4
  -3   2   5 33.6234 2.61582   5
  -3   2   5 35.1274 3.70041   2
  -3   2   5 37.4757 2.72729   5
  -3   2   5 39.6884 2.60629   1
   2  -2  -5 52.6707 2.29454   5
   2  -2  -5 52.5277 2.36578   5
   2  -2  -5 49.7192 3.47858   4
   2  -2  -5 51.8090 2.52273   3
  -2   2   5 55.2478 3.67255   4
  -2   2   5 49.9441 2.78162   5
  -2   2   5 57.8906 3.67732   2
  -2   2   5 52.2859 2.82260   5
  -2   2   5 58.2737 2.63732   1
  -2   2   5 56.1475 2.60520   3
   1  -2  -5 45.1217 2.04527   5
   1  -2  -5 46.9167 3.20910   4
   1  -2  -5 48.1034 2.58234   3
   1  -2  -5 47.9195 2.12322   5
  -1   2   5 48.1171 1.90413   1
  -1   2   5 48.9138 2.67725   3
  -1   2   5 45.5261 2.45127   5
  -1   2   5 52.4573 3.24953   4
  -1   2   5 46.4094 1.89641   1
  -1   2   5 48.8987 3.09465   2
  -1   2   5 45.1784 2.40391   5
   0  -2  -5 79.5854 2.94320   5
   0  -2  -5 80.4784 4.06578   4
   0  -2  -5 80.6714 2.91225   5
   0   2   5 76.4564 3.23489   5
   0   2   5 81.3512 3.25115   5
   0   2   5 88.1223 4.10045   4
   0   2   5 81.9128 4.08133   2
   0   2   5 82.6178 3.76674   3
  -1  -2  -5 626.772 17.1566   2
  -1  -2  -5 614.078 15.1972   1
  -1  -2  -5 598.073 15.8488   5
  -1  -2  -5 580.022 17.0770   4
  -1  -2  -5 610.783 15.9812   5
  -1  -2  -5 591.347 16.8866   3
   1   2   5 627.358 16.9090   3
   1   2   5 608.005 16.3175   5
   1   2   5 587.838 16.0225   5
   1   2   5 627.256 17.2507   2
   1   2   5 601.307 17.0658   4
   1   2   5 612.556 15.1919   1
  -2  -2  -5 101.760 3.63639   1
  -2  -2  -5 100.031 4.66057   3
  -2  -2  -5 109.243 4.77377   2
  -2  -2  -5 104.225 4.03790   5
   2   2   5 104.333 4.14952   5
   2   2   5 99.5031 4.59786   4
   2   2   5 109.174 4.74277   3
   2   2   5 106.377 3.64853   1
   2   2   5 100.750 4.70303   2
   2   2   5 97.4833 4.20231   5
  -3  -2  -5 95.0795 4.20216   5
  -3  -2  -5 98.9456 4.29246   5
  -3  -2  -5 91.1110 4.66940   3
  -3  -2  -5 102.665 4.93657   2
   3   2   5 99.8387 4.60897   4
   3   2   5 97.9176 4.06252   1
   3   2   5 101.601 4.86321   3
   3   2   5 95.1748 4.77127   2
   3   2   5 88.4856 4.27054   5
   3   2   5 96.2644 4.44218   5
  -4  -2  -5 0.40737 1.00818   1
  -4  -2  -5 1.45759 1.12826   5
  -4  -2  -5 -1.0838 1.26026   5
  -4  -2  -5 -0.1103 1.11797   3
  -4  -2  -5 -0.2046 1.26395   2
   4   2   5 1.01345 1.39995   5
   4   2   5 0.25062 1.01444   5
   4   2   5 -0.6731 1.29971   4
   4   2   5 -1.2201 1.10638   1
   4   2   5 0.00462 1.64170   3
   4   2   5 -0.0213 1.10836   2
   4   2   5 -0.1104 1.02878   4
  -5  -2  -5 65.4173 4.77555   5
  -5  -2  -5 60.3697 4.39015   3
  -5  -2  -5 63.0288 4.09779   1
  -5  -2  -5 66.9113 4.47501   5
   5   2   5 63.6772 5.00467   3
   5   2   5 69.3101 5.13572   5
   5   2   5 60.5480 4.69486   1
   5   2   5 70.9103 4.79493   5
   5   2   5 63.5255 4.37902   4
   5   2   5 64.9512 4.74930   2
  -6  -2  -5 20.6284 3.41995   1
  -6  -2  -5 27.5376 3.85440   3
  -6  -2  -5 37.0078 7.18347   5
  -6  -2  -5 34.1595 5.20684   5
   6   2   5 20.8822 5.71919   5
   6   2   5 15.5595 3.47767   4
   6   2   5 30.7293 4.51898   2
  -7  -2  -5 1.43731 2.02630   5
  -7  -2  -5 -0.3830 2.26262   3
  -7  -2  -5 2.53185 1.94524   1
   7   2   5 -2.4797 1.99727   5
   7   2   5 -1.9052 1.57198   4
   7   2   5 -2.1320 2.02797   2
  -8  -2  -5 -3.0745 2.24228   1
  -8  -2  -5 -1.7054 2.50429   5
  -8  -2  -5 -0.0142 2.75056   3
   8   2   5 -2.3471 2.78731   5
   8   2   5 -4.5576 2.82004   2
   8   2   5 2.45706 2.43059   4
  -9  -2  -5 -0.0492 2.92781   1
  -9  -2  -5 2.65478 3.70077   5
  -9  -2  -5 6.91518 3.36441   3
   9   2   5 -2.0644 2.74557   4
   9   2   5 12.3157 4.21149   2
   8  -3  -5 21.9650 5.51811   2
   8  -3  -5 36.4186 7.60694   4
  -8   3   5 39.5703 7.54941   1
  -8   3   5 39.9521 7.16938   5
   7  -3  -5 46.2896 7.99181   2
   7  -3  -5 30.5692 6.12934   4
  -7   3   5 41.6452 5.37366   5
  -7   3   5 41.6619 5.90612   1
   6  -3  -5 57.9886 5.93550   4
   6  -3  -5 61.6271 7.10472   2
  -6   3   5 51.0900 5.34945   5
  -6   3   5 60.7639 5.21972   5
  -6   3   5 59.0036 5.53419   1
   5  -3  -5 143.081 7.95664   2
   5  -3  -5 143.627 7.49123   4
   5  -3  -5 135.979 5.17645   5
  -5   3   5 143.485 6.74486   5
  -5   3   5 148.664 6.58743   5
  -5   3   5 150.350 6.85936   1
   4  -3  -5 105.361 3.75804   5
   4  -3  -5 103.844 6.39266   2
   4  -3  -5 105.767 5.79101   4
  -4   3   5 105.800 4.91639   5
  -4   3   5 103.946 4.87896   5
  -4   3   5 106.085 6.18837   4
  -4   3   5 107.598 5.15350   1
   3  -3  -5 1.27153 1.26265   4
   3  -3  -5 2.93108 1.49059   2
  -3   3   5 2.68032 1.58803   4
  -3   3   5 2.75384 1.47473   2
  -3   3   5 1.02338 0.82546   5
  -3   3   5 1.50237 0.96655   1
  -3   3   5 1.46900 0.85973   5
   2  -3  -5 173.067 6.95749   4
   2  -3  -5 169.319 5.55482   3
  -2   3   5 170.878 7.01937   4
  -2   3   5 165.752 5.63707   5
  -2   3   5 171.522 5.61318   5
  -2   3   5 171.487 5.62267   3
  -2   3   5 169.009 7.10650   2
  -2   3   5 170.331 5.70938   1
   1  -3  -5 525.534 15.8288   4
   1  -3  -5 538.958 14.7753   3
  -1   3   5 537.134 14.1204   5
  -1   3   5 530.382 14.6896   3
  -1   3   5 552.606 15.8403   2
  -1   3   5 531.805 14.0331   1
  -1   3   5 536.622 15.7027   4
  -1   3   5 537.084 14.0576   1
  -1   3   5 535.800 14.2337   5
   0  -3  -5 354.485 11.0102   3
   0  -3  -5 360.866 11.6085   4
   0   3   5 375.462 10.2406   5
   0   3   5 373.945 11.5698   2
   0   3   5 379.015 11.0665   3
   0   3   5 380.976 9.79937   1
   0   3   5 366.320 10.1047   5
   0   3   5 377.874 11.5803   4
  -1  -3  -5 917.923 22.6315   1
  -1  -3  -5 908.172 22.5442   5
  -1  -3  -5 916.252 22.5816   5
  -1  -3  -5 880.967 24.5136   4
  -1  -3  -5 858.552 24.0048   3
   1   3   5 900.589 23.1714   5
   1   3   5 904.914 24.0689   3
   1   3   5 895.692 24.4088   4
   1   3   5 904.615 22.5883   1
   1   3   5 892.959 22.9885   5
   1   3   5 904.398 24.3575   2
  -2  -3  -5 131.300 4.48532   1
  -2  -3  -5 126.453 5.51852   3
  -2  -3  -5 137.036 4.58198   5
  -2  -3  -5 132.497 5.62383   2
  -2  -3  -5 132.526 4.56600   5
   2   3   5 130.034 4.82080   5
   2   3   5 130.777 4.94034   5
   2   3   5 137.151 5.61479   3
   2   3   5 126.056 5.49284   2
   2   3   5 130.201 5.53624   4
   2   3   5 132.200 4.51965   1
  -3  -3  -5 17.9468 2.46759   3
  -3  -3  -5 17.6342 2.07841   5
  -3  -3  -5 14.5159 2.48272   5
  -3  -3  -5 19.6948 1.96155   1
  -3  -3  -5 15.0619 2.76124   2
   3   3   5 22.0171 2.73033   4
   3   3   5 17.0860 2.09816   5
   3   3   5 19.5915 2.32178   5
   3   3   5 19.9176 2.15227   1
   3   3   5 15.6941 2.66467   3
   3   3   5 21.3576 2.65850   4
   3   3   5 16.1729 2.42264   2
  -4  -3  -5 22.5497 2.79151   5
  -4  -3  -5 23.3156 3.34548   2
  -4  -3  -5 22.7750 2.47919   1
  -4  -3  -5 25.5129 3.08876   3
  -4  -3  -5 16.9218 3.14902   5
   4   3   5 20.3837 2.81447   4
   4   3   5 21.5397 2.92426   5
   4   3   5 26.7340 2.93719   1
   4   3   5 25.2472 3.23571   2
   4   3   5 22.8430 3.27100   3
   4   3   5 18.2673 3.49124   4
   4   3   5 21.8944 2.83938   5
  -5  -3  -5 73.5671 4.88202   5
  -5  -3  -5 60.2292 4.45618   3
  -5  -3  -5 65.4531 4.31448   1
  -5  -3  -5 65.4860 4.54051   5
   5   3   5 62.2335 4.46970   5
   5   3   5 60.2496 4.62074   4
   5   3   5 58.1746 5.02203   3
   5   3   5 72.4718 5.04608   2
   5   3   5 61.3949 4.58216   1
   5   3   5 68.5830 4.68828   5
  -6  -3  -5 12.7209 3.52435   3
  -6  -3  -5 11.3995 3.78221   5
  -6  -3  -5 8.32372 1.99706   1
   6   3   5 10.0509 2.17033   5
   6   3   5 9.39684 2.17902   4
   6   3   5 14.2702 4.04767   2
   6   3   5 17.9936 4.59506   5
  -7  -3  -5 71.0465 6.03607   5
  -7  -3  -5 64.7519 5.64166   3
  -7  -3  -5 64.8809 5.48837   1
   7   3   5 38.8023 8.36087   5
   7   3   5 64.5813 6.06557   5
   7   3   5 60.9874 6.14594   2
   7   3   5 63.9225 5.30063   4
  -8  -3  -5 9.25472 3.23744   5
  -8  -3  -5 15.0194 4.70001   3
  -8  -3  -5 11.9003 2.95763   1
   8   3   5 8.76531 3.16445   4
   8   3   5 12.6411 3.55582   5
   8   3   5 13.9289 3.84309   2
  -9  -3  -5 13.7363 4.48465   3
  -9  -3  -5 10.1765 3.33228   1
   9   3   5 10.2914 4.66464   5
   9   3   5 12.4854 4.21098   2
   9   3   5 8.37938 3.55931   4
   8  -4  -5 -8.3634 4.01169   2
   8  -4  -5 2.89714 3.57647   4
  -8   4   5 5.94695 3.80398   1
  -8   4   5 -0.3424 3.08807   5
   7  -4  -5 22.3166 6.14884   4
   7  -4  -5 17.8929 4.37920   2
  -7   4   5 20.4912 5.03145   5
  -7   4   5 21.4224 6.62313   1
   6  -4  -5 21.3452 5.01778   4
   6  -4  -5 13.1098 3.21677   2
  -6   4   5 29.2293 4.91128   5
  -6   4   5 20.0028 4.14879   1
  -6   4   5 25.2666 4.40271   5
   5  -4  -5 11.2370 3.85977   4
   5  -4  -5 5.72448 2.12957   2
  -5   4   5 12.0055 3.49043   1
  -5   4   5 6.69988 1.81487   5
  -5   4   5 6.21583 1.87047   5
   4  -4  -5 76.5254 5.71797   2
   4  -4  -5 84.1829 5.20530   4
  -4   4   5 76.2942 5.82882   4
  -4   4   5 83.1257 4.73551   1
  -4   4   5 77.9092 4.33303   5
  -4   4   5 83.1324 4.35118   5
   3  -4  -5 16.6642 3.10026   4
   3  -4  -5 11.7071 2.87817   2
  -3   4   5 14.1035 2.22593   1
  -3   4   5 15.9249 1.98101   5
  -3   4   5 12.6744 1.86941   3
  -3   4   5 10.5533 3.53775   4
  -3   4   5 20.2900 2.07529   5
   2  -4  -5 11.7075 2.34174   4
  -2   4   5 8.81831 2.88568   4
  -2   4   5 9.12997 1.95783   1
  -2   4   5 10.4375 1.83148   1
  -2   4   5 8.71772 1.50498   5
  -2   4   5 15.0087 2.75847   2
  -2   4   5 9.52114 1.87285   3
  -2   4   5 8.94928 1.52778   5
   1  -4  -5 175.064 6.29175   3
   1  -4  -5 170.542 7.00472   4
  -1   4   5 175.449 6.31806   3
  -1   4   5 184.583 5.88338   1
  -1   4   5 178.477 5.86245   1
  -1   4   5 179.435 7.03544   2
  -1   4   5 178.952 5.29115   5
  -1   4   5 180.245 7.16302   4
  -1   4   5 176.503 5.32971   5
   0  -4  -5 271.531 8.97809   3
   0  -4  -5 282.618 9.67782   4
   0   4   5 280.798 7.81394   5
   0   4   5 271.109 7.65396   5
   0   4   5 280.194 8.09832   1
   0   4   5 277.232 9.50333   2
   0   4   5 280.857 9.10137   3
   0   4   5 284.384 9.49108   4
   0   4   5 284.832 9.42526   2
  -1  -4  -5 877.315 22.2483   1
  -1  -4  -5 843.204 23.4610   3
   1   4   5 872.034 23.4865   3
   1   4   5 838.592 21.9699   5
   1   4   5 893.922 22.2070   1
   1   4   5 859.759 23.6204   2
   1   4   5 864.736 22.1722   5
   1   4   5 855.246 23.7700   4
  -2  -4  -5 312.860 10.3892   3
  -2  -4  -5 312.788 9.24986   1
  -2  -4  -5 308.740 10.1114   2
  -2  -4  -5 316.450 8.66260   5
  -2  -4  -5 312.810 8.63819   5
   2   4   5 307.125 9.14458   5
   2   4   5 306.424 10.3932   4
   2   4   5 312.929 10.2958   3
   2   4   5 320.080 9.26369   1
   2   4   5 309.516 10.2037   2
   2   4   5 306.955 9.28446   5
  -3  -4  -5 49.2593 2.93639   5
  -3  -4  -5 51.7343 3.05914   1
  -3  -4  -5 54.7807 3.78381   2
  -3  -4  -5 57.9925 3.96983   3
  -3  -4  -5 56.6789 3.06615   5
   3   4   5 50.8893 3.23742   5
   3   4   5 52.9214 3.89793   4
   3   4   5 48.4317 3.82593   3
   3   4   5 53.6150 3.23515   1
   3   4   5 55.8713 4.05059   4
   3   4   5 53.2245 3.68479   2
   3   4   5 51.5092 3.24545   5
  -4  -4  -5 -2.2054 1.20942   5
  -4  -4  -5 2.18750 1.60655   3
  -4  -4  -5 0.05330 1.10959   5
  -4  -4  -5 -1.1182 0.87998   1
  -4  -4  -5 0.13217 1.81223   2
   4   4   5 0.31879 1.26382   4
   4   4   5 0.99111 1.36325   1
   4   4   5 -0.5357 1.01079   2
   4   4   5 -0.3640 1.10067   5
   4   4   5 0.98624 1.78257   3
   4   4   5 0.85749 1.24602   5
  -5  -4  -5 4.84451 1.63697   5
  -5  -4  -5 2.78866 1.71841   3
  -5  -4  -5 3.45815 1.33143   1
   5   4   5 3.22319 2.10698   1
   5   4   5 2.49984 1.53251   4
   5   4   5 4.73283 1.91234   2
   5   4   5 3.65401 1.82175   5
   5   4   5 1.90744 1.54719   5
  -6  -4  -5 19.8612 4.21649   3
  -6  -4  -5 16.2400 3.79437   5
  -6  -4  -5 17.6795 3.49650   1
   6   4   5 14.0305 4.05590   5
   6   4   5 18.6163 4.54326   5
   6   4   5 18.8599 4.14199   4
   6   4   5 19.9201 4.52564   2
  -7  -4  -5 22.5593 4.97141   3
  -7  -4  -5 24.4172 4.96057   5
  -7  -4  -5 14.4913 3.88047   1
   7   4   5 9.70019 4.15572   5
   7   4   5 13.6315 4.04635   4
   7   4   5 20.1993 5.01312   5
   7   4   5 27.1315 5.30720   2
  -8  -4  -5 11.0273 3.58456   3
  -8  -4  -5 11.1639 3.76789   5
  -8  -4  -5 3.43166 2.34974   1
   8   4   5 9.82239 2.79990   4
   8   4   5 8.07358 3.56532   2
   8   4   5 8.52040 3.79972   5
  -9  -4  -5 6.38762 4.28057   3
  -9  -4  -5 8.51399 3.53091   1
   9   4   5 3.42237 3.72994   2
   9   4   5 -1.0949 3.65460   5
   9   4   5 6.78683 3.30816   4
   7  -5  -5 24.1576 6.86015   4
  -7   5   5 31.8378 5.98756   5
  -7   5   5 26.8499 6.45842   1
   6  -5  -5 34.7622 6.01957   4
   6  -5  -5 26.7079 5.98001   2
  -6   5   5 32.8552 4.43126   5
  -6   5   5 34.4967 5.25623   1
   5  -5  -5 27.6694 4.67988   4
   5  -5  -5 24.6655 5.31199   2
  -5   5   5 14.3625 3.74272   1
  -5   5   5 21.1186 3.65047   5
  -5   5   5 20.1198 3.23305   5
   4  -5  -5 1.16807 1.45945   2
   4  -5  -5 4.36688 1.80911   4
  -4   5   5 4.39372 2.87771   4
  -4   5   5 3.80381 1.46546   1
  -4   5   5 2.70067 1.35429   5
  -4   5   5 2.32046 1.27130   5
   3  -5  -5 44.3065 4.23662   2
   3  -5  -5 44.4114 4.08575   4
  -3   5   5 37.3494 4.97298   4
  -3   5   5 49.6585 3.22550   3
  -3   5   5 44.2164 2.66628   5
  -3   5   5 46.2927 3.60325   1
  -3   5   5 49.6950 3.82378   1
  -3   5   5 48.1476 2.97847   3
   2  -5  -5 42.3859 3.85707   4
  -2   5   5 38.0667 2.16207   5
  -2   5   5 39.1163 2.13065   5
  -2   5   5 40.3925 3.04410   1
  -2   5   5 40.1378 3.08133   3
  -2   5   5 44.3318 4.32133   2
  -2   5   5 31.1089 3.90874   4
  -2   5   5 36.6259 3.05494   1
   1  -5  -5 49.9999 3.29026   3
   1  -5  -5 49.0970 3.82231   4
  -1   5   5 50.3640 3.94448   2
  -1   5   5 42.4374 3.31182   3
  -1   5   5 46.8817 1.98434   5
  -1   5   5 49.6314 2.97019   1
  -1   5   5 47.5864 2.92283   1
  -1   5   5 46.9114 3.61355   4
  -1   5   5 47.5110 2.00299   5
   0  -5  -5 15.0768 2.32595   3
   0   5   5 16.3313 1.25460   5
   0   5   5 14.3723 2.61517   3
   0   5   5 16.7939 2.47875   4
   0   5   5 16.6761 2.96252   2
   0   5   5 18.7962 2.00307   1
   0   5   5 22.6086 2.71618   2
  -1  -5  -5 4.17209 1.51740   3
   1   5   5 8.79167 2.12688   4
   1   5   5 3.83569 1.13456   2
   1   5   5 6.13193 1.54926   1
   1   5   5 4.74664 1.53431   3
   1   5   5 5.45847 1.30115   5
  -2  -5  -5 279.018 8.83845   1
  -2  -5  -5 280.935 9.88632   3
   2   5   5 270.430 8.53672   5
   2   5   5 296.829 9.99915   3
   2   5   5 284.400 9.65533   2
   2   5   5 290.032 8.92761   1
   2   5   5 282.719 9.90392   4
   2   5   5 280.152 8.43921   5
  -3  -5  -5 2.29670 0.95914   5
  -3  -5  -5 1.87003 1.44198   2
  -3  -5  -5 0.56470 1.43621   3
  -3  -5  -5 1.06091 0.81320   1
  -3  -5  -5 0.25228 0.89730   5
   3   5   5 7.10669 2.10344   1
   3   5   5 0.41916 1.77941   3
   3   5   5 1.05682 0.91460   2
   3   5   5 1.05448 1.18072   4
   3   5   5 2.34581 0.90840   5
   3   5   5 2.02964 1.10160   5
   3   5   5 2.58025 1.32722   4
  -4  -5  -5 449.497 13.7325   1
  -4  -5  -5 448.141 12.9969   5
  -4  -5  -5 439.057 14.5190   3
  -4  -5  -5 437.136 14.2223   2
   4   5   5 506.383 16.6251   3
   4   5   5 438.518 14.2101   2
   4   5   5 435.405 13.3827   5
   4   5   5 435.777 13.6020   5
   4   5   5 439.528 13.7536   1
   4   5   5 437.694 14.6870   4
  -5  -5  -5 39.7915 3.59248   5
  -5  -5  -5 59.4035 8.32927   2
  -5  -5  -5 39.7212 3.63955   1
  -5  -5  -5 37.9004 4.23463   3
   5   5   5 30.1938 4.09337   5
   5   5   5 39.4815 4.45540   2
   5   5   5 39.2471 4.49020   4
   5   5   5 36.5043 3.95066   5
  -6  -5  -5 8.16479 2.22639   1
  -6  -5  -5 11.2305 3.56786   5
  -6  -5  -5 13.9516 3.94760   3
   6   5   5 21.1699 4.92873   5
   6   5   5 13.7955 4.22022   5
   6   5   5 9.85573 2.44309   2
   6   5   5 13.5641 4.37072   4
  -7  -5  -5 7.69976 2.93621   3
  -7  -5  -5 14.0538 4.49484   1
  -7  -5  -5 5.86120 2.49003   5
   7   5   5 7.78899 2.70521   5
   7   5   5 7.92017 2.91299   2
   7   5   5 6.44929 4.03876   5
   7   5   5 12.4628 4.45313   4
  -8  -5  -5 14.8845 3.98352   3
  -8  -5  -5 25.5173 5.70876   1
   8   5   5 18.8586 6.72899   2
   8   5   5 21.1679 6.25222   4
   8   5   5 17.2197 4.01180   5
  -9  -5  -5 64.8617 8.21963   1
  -9  -5  -5 49.6232 7.85473   3
   9   5   5 60.1130 8.76979   4
   9   5   5 47.3798 9.67196   5
   9   5   5 39.9944 8.89837   2
   7  -6  -5 14.6421 4.93117   2
   7  -6  -5 23.1811 7.69654   4
  -7   6   5 16.0757 4.37526   1
  -7   6   5 17.5599 5.72909   5
   6  -6  -5 2.86796 2.61364   4
   6  -6  -5 4.38240 3.22551   2
  -6   6   5 4.96871 2.31070   5
  -6   6   5 5.02574 2.73763   1
   5  -6  -5 2.92153 2.34471   2
   5  -6  -5 5.31776 2.25998   4
  -5   6   5 1.86561 1.95236   5
  -5   6   5 2.92287 1.54956   5
  -5   6   5 1.66713 1.93856   1
   4  -6  -5 2.41027 1.91496   4
   4  -6  -5 2.56955 2.12105   2
  -4   6   5 1.33294 1.20898   5
  -4   6   5 0.72433 1.29179   3
  -4   6   5 1.59412 1.70622   1
  -4   6   5 -0.2580 1.39203   5
  -4   6   5 3.30449 1.81421   3
   3  -6  -5 227.754 9.10959   4
  -3   6   5 221.029 7.82324   3
  -3   6   5 209.066 9.38104   4
  -3   6   5 224.413 8.72804   1
  -3   6   5 225.873 6.96129   5
  -3   6   5 218.482 7.01173   5
  -3   6   5 222.406 7.58011   3
  -3   6   5 216.262 8.44829   1
   2  -6  -5 27.1451 3.49365   4
  -2   6   5 18.5098 3.91913   4
  -2   6   5 21.2243 2.85240   1
  -2   6   5 21.1373 3.27638   3
  -2   6   5 27.4198 3.32548   1
  -2   6   5 22.8034 1.76586   5
  -2   6   5 23.6423 1.66666   5
  -1   6   5 623.449 17.4328   1
  -1   6   5 606.146 18.3798   2
  -1   6   5 604.565 18.2732   4
  -1   6   5 615.935 17.3695   1
  -1   6   5 624.353 17.7752   3
   0  -6  -5 0.78811 1.31571   3
   0   6   5 1.10975 1.21395   2
   0   6   5 1.99132 1.13243   2
   0   6   5 -1.0623 1.19693   4
   0   6   5 1.78719 1.49899   3
   0   6   5 0.21338 1.01758   1
  -1  -6  -5 10.4413 2.01219   1
  -1  -6  -5 9.61453 2.32740   3
   1   6   5 11.8805 1.45776   5
   1   6   5 10.9320 2.76286   2
   1   6   5 5.90707 2.03256   3
   1   6   5 9.84580 1.36484   5
   1   6   5 9.00716 2.08988   1
   1   6   5 9.42388 2.20645   2
   1   6   5 6.26773 1.78329   4
  -2  -6  -5 11.4162 2.06374   1
  -2  -6  -5 9.17398 2.47406   3
   2   6   5 9.06541 2.22712   2
   2   6   5 10.3702 3.17924   4
   2   6   5 14.2227 3.03625   3
   2   6   5 10.5347 1.85675   5
   2   6   5 9.18260 1.76918   5
   2   6   5 7.47953 1.77821   4
   2   6   5 13.3522 2.53910   1
  -3  -6  -5 90.4782 5.42447   2
  -3  -6  -5 90.6622 3.52837   5
  -3  -6  -5 96.7636 4.67924   1
  -3  -6  -5 98.9279 5.72587   3
  -3  -6  -5 95.4898 3.56186   5
   3   6   5 91.2926 4.51138   5
   3   6   5 91.1527 4.98938   2
   3   6   5 88.1256 4.35165   5
   3   6   5 97.3454 4.80707   1
   3   6   5 90.9359 5.76112   4
  -4  -6  -5 185.527 8.42975   3
  -4  -6  -5 185.712 8.16759   2
  -4  -6  -5 192.379 7.57686   1
  -4  -6  -5 192.034 6.73028   5
   4   6   5 185.669 7.77953   1
   4   6   5 185.233 7.15391   5
   4   6   5 193.177 7.95205   2
   4   6   5 190.789 7.50772   5
   4   6   5 191.946 8.79115   4
  -5  -6  -5 230.608 8.57679   5
  -5  -6  -5 239.609 10.0425   3
  -5  -6  -5 237.896 9.25974   1
   5   6   5 229.773 9.19834   5
   5   6   5 233.038 10.2321   4
   5   6   5 233.875 9.52566   2
   5   6   5 230.450 9.16273   5
  -6  -6  -5 -0.5207 1.64223   1
  -6  -6  -5 1.69199 1.94502   5
  -6  -6  -5 2.60132 2.39670   3
   6   6   5 1.57776 2.17401   4
   6   6   5 2.37145 1.96309   2
   6   6   5 3.57920 2.09814   5
   6   6   5 1.24079 1.92279   5
  -7  -6  -5 4.22589 2.43719   1
  -7  -6  -5 4.74995 2.74207   3
  -7  -6  -5 5.68100 2.58992   5
   7   6   5 7.80602 2.91563   5
   7   6   5 4.13997 2.69929   2
   7   6   5 3.91929 2.55504   4
  -8  -6  -5 3.45228 2.47009   1
  -8  -6  -5 6.61793 3.40055   3
   8   6   5 7.49422 3.53295   4
   8   6   5 5.92713 3.68527   5
   8   6   5 9.26858 3.80848   2
  -9  -6  -5 -4.7909 4.23754   3
  -9  -6  -5 -2.8645 3.10627   1
   9   6   5 -5.3186 3.96007   2
   9   6   5 -5.3294 4.17613   5
   9   6   5 -1.9649 3.70048   4
   6  -7  -5 12.9257 3.86101   2
   6  -7  -5 31.0894 6.68097   4
  -6   7   5 16.8793 5.93558   1
  -6   7   5 22.2068 4.68879   5
   5  -7  -5 19.1542 5.30470   4
   5  -7  -5 6.27717 3.13284   2
  -5   7   5 7.54748 2.51739   1
  -5   7   5 12.4632 3.32003   5
  -5   7   5 8.92898 2.46453   5
   4  -7  -5 4.11756 2.04622   4
   4  -7  -5 4.04964 2.35438   2
  -4   7   5 4.68995 2.12455   1
  -4   7   5 6.34974 2.76860   3
  -4   7   5 9.18197 2.46426   5
  -4   7   5 11.5478 3.34731   5
  -4   7   5 8.71593 2.85930   3
  -3   7   5 14.0049 2.91107   3
  -3   7   5 8.53672 2.41758   3
  -3   7   5 10.0523 2.15467   5
  -3   7   5 9.74254 1.86099   5
  -3   7   5 13.9776 3.46297   1
  -2   7   5 16.9194 2.78594   3
  -2   7   5 13.9074 3.97707   3
  -2   7   5 14.9166 3.26970   1
  -1   7   5 35.8850 4.09016   3
  -1   7   5 27.9965 4.21382   4
  -1   7   5 24.9149 3.50550   1
  -1   7   5 23.5450 4.80426   2
   0   7   5 52.9353 4.65807   3
   0   7   5 47.1567 4.61946   2
   0   7   5 46.2061 4.54103   4
   0   7   5 50.8073 3.87390   2
   0   7   5 49.7283 3.92256   1
  -1  -7  -5 3.61153 1.61884   3
  -1  -7  -5 4.12080 1.36354   1
   1   7   5 3.67654 1.89310   2
   1   7   5 5.38928 1.50112   5
   1   7   5 5.26474 1.53314   2
   1   7   5 1.12523 1.98402   4
   1   7   5 8.23797 2.64913   1
   1   7   5 5.52936 1.49733   5
   1   7   5 1.00954 2.23633   3
   1   7   5 5.66182 1.87430   4
  -2  -7  -5 0.87991 1.49863   3
  -2  -7  -5 0.52250 1.12659   1
   2   7   5 1.54270 0.98435   5
   2   7   5 1.63458 1.54572   4
   2   7   5 -0.1211 1.16731   2
   2   7   5 2.10240 1.41363   1
   2   7   5 1.62178 1.11504   5
  -3  -7  -5 21.7079 3.72520   3
  -3  -7  -5 21.2542 2.81169   1
   3   7   5 15.4190 3.63694   4
   3   7   5 18.9695 3.54162   1
   3   7   5 18.8237 2.71710   5
   3   7   5 19.3587 2.71009   5
   3   7   5 22.4084 3.02511   2
  -4  -7  -5 0.05539 1.67136   3
  -4  -7  -5 -0.3525 1.65451   2
  -4  -7  -5 0.07779 1.38039   1
  -4  -7  -5 0.19351 1.32426   5
   4   7   5 0.98417 1.45282   2
   4   7   5 -0.4076 1.51938   5
   4   7   5 0.92545 1.63449   4
   4   7   5 -1.0564 1.15067   5
  -5  -7  -5 30.2849 4.12410   3
  -5  -7  -5 26.4329 3.52926   1
  -5  -7  -5 31.3804 4.25151   5
   5   7   5 36.8355 4.62644   2
   5   7   5 22.6560 4.43571   5
   5   7   5 24.6555 4.48491   4
   5   7   5 27.2329 3.82734   5
  -6  -7  -5 4.33694 2.47519   3
  -6  -7  -5 4.33294 2.56568   5
  -6  -7  -5 3.17761 2.21748   1
   6   7   5 4.77741 2.37558   5
   6   7   5 -1.1259 2.21354   4
   6   7   5 2.13151 2.19905   2
   6   7   5 6.10211 2.68893   5
  -7  -7  -5 -1.7747 2.46788   1
  -7  -7  -5 3.63784 3.29675   3
   7   7   5 4.78417 2.84720   4
   7   7   5 3.46740 2.80448   2
   7   7   5 4.72203 3.15628   5
  -8  -7  -5 10.7130 3.83402   1
  -8  -7  -5 25.3179 7.66077   3
   8   7   5 23.2965 8.10954   2
   8   7   5 2.89209 3.22621   5
   8   7   5 12.7749 4.12685   4
   9   7   5 17.0196 5.21655   2
   9   7   5 10.3516 4.25081   4
   6  -8  -5 -1.4608 3.63466   2
  -6   8   5 -1.8686 2.17966   5
  -6   8   5 4.38622 3.53369   1
   5  -8  -5 0.88069 2.97849   2
  -5   8   5 1.69603 2.55464   5
  -5   8   5 5.84848 2.01515   5
  -5   8   5 -0.2298 2.52049   1
  -4   8   5 9.42167 2.80225   5
  -4   8   5 7.45804 2.24301   1
  -4   8   5 10.8018 3.49657   3
  -4   8   5 10.2718 3.37148   5
  -3   8   5 0.40686 1.91341   1
  -3   8   5 0.54107 0.95502   5
  -3   8   5 1.06723 1.21037   5
  -3   8   5 2.02837 1.92611   3
  -3   8   5 -1.2324 3.11790   3
  -2   8   5 26.5056 5.57251   3
  -2   8   5 29.5009 4.04658   1
  -2   8   5 24.2075 3.55277   3
   0   8   5 10.5934 3.74529   4
   0   8   5 5.14464 2.25268   2
   0   8   5 11.3630 3.75649   1
   0   8   5 3.53194 1.63068   2
  -1  -8  -5 0.23475 1.31247   1
   1   8   5 -0.1951 0.80958   5
   1   8   5 0.30254 1.85273   1
   1   8   5 0.26494 1.18945   2
   1   8   5 1.11740 0.90364   5
   1   8   5 0.77335 1.66812   4
   1   8   5 2.96666 1.76586   2
  -2  -8  -5 105.499 5.60987   1
   2   8   5 101.604 4.43293   5
   2   8   5 103.576 5.88373   2
   2   8   5 95.0638 6.06180   1
   2   8   5 99.6814 5.21143   5
   2   8   5 112.221 6.87745   4
   2   8   5 108.719 5.52546   2
  -3  -8  -5 29.1190 4.55200   3
  -3  -8  -5 29.9351 3.58883   1
   3   8   5 16.0313 3.99189   4
   3   8   5 28.7257 3.12302   5
   3   8   5 29.0230 3.22222   5
   3   8   5 21.0422 3.26299   2
  -4  -8  -5 22.2448 4.48097   3
  -4  -8  -5 15.2228 3.32354   1
   4   8   5 16.1371 3.59515   5
   4   8   5 9.32970 2.26548   5
   4   8   5 20.4856 3.78312   2
   4   8   5 10.6408 2.63041   4
  -5  -8  -5 7.22467 2.24393   5
  -5  -8  -5 5.03838 2.05612   1
  -5  -8  -5 18.2403 5.08186   3
   5   8   5 4.96213 2.43437   5
   5   8   5 8.63916 2.48965   2
   5   8   5 11.8442 3.92911   5
   5   8   5 6.22739 2.64499   4
  -6  -8  -5 0.58997 2.98048   3
  -6  -8  -5 0.99536 2.19872   1
   6   8   5 -1.1391 2.50141   2
   6   8   5 2.20404 2.47937   5
  -7  -8  -5 26.2911 6.98118   3
  -7  -8  -5 43.7362 6.34886   1
   7   8   5 26.1999 6.54339   5
   7   8   5 27.3577 6.35405   4
   7   8   5 27.3773 6.39576   2
  -8  -8  -5 30.5508 7.16614   1
   8   8   5 32.1615 8.07823   5
   8   8   5 45.4324 8.70202   2
  -5   9   5 -1.4897 2.86711   1
  -5   9   5 2.30644 1.92052   5
  -4   9   5 16.7963 4.85172   3
  -4   9   5 10.8244 3.08001   1
  -4   9   5 6.62453 2.33008   5
  -4   9   5 14.3689 3.17146   5
  -3   9   5 -0.8234 2.11101   3
  -3   9   5 1.13481 2.24904   1
  -2   9   5 2.54165 2.18953   3
  -2   9   5 5.76582 2.40973   1
  -1   9   5 42.5314 5.38954   4
  -1   9   5 32.3364 4.13232   3
   0   9   5 -0.1464 1.85271   4
   0   9   5 -1.8488 1.51402   2
  -1  -9  -5 8.74097 2.18992   1
   1   9   5 8.72107 2.75105   2
   1   9   5 17.1567 4.53291   4
   1   9   5 13.9102 1.99545   5
   1   9   5 8.62553 3.03140   2
   1   9   5 15.3185 2.17130   5
  -2  -9  -5 38.4520 4.07329   1
   2   9   5 34.9750 3.75372   2
   2   9   5 37.9585 5.37826   4
   2   9   5 32.3715 3.03153   5
   2   9   5 29.5893 2.97740   5
   2   9   5 26.8268 5.00144   2
  -3  -9  -5 67.3821 5.30828   1
   3   9   5 63.3451 6.07793   4
   3   9   5 73.0312 4.48643   5
   3   9   5 68.6971 4.98030   2
   3   9   5 68.8652 4.35719   5
  -4  -9  -5 23.9161 4.23014   1
   4   9   5 24.7021 5.56049   4
   4   9   5 30.1125 4.31858   5
   4   9   5 27.6796 3.74009   5
   4   9   5 25.8017 4.05514   2
  -5  -9  -5 8.82944 2.42337   1
  -5  -9  -5 0.44545 2.36792   5
   5   9   5 1.90324 2.32906   4
   5   9   5 5.31078 2.13278   5
   5   9   5 3.94466 2.71462   5
   5   9   5 4.84926 2.20073   2
  -6  -9  -5 2.88021 2.41694   1
   6   9   5 6.11273 2.57181   2
   6   9   5 2.97621 3.01642   4
   6   9   5 10.3561 3.37877   5
  -7  -9  -5 -1.0482 2.96913   1
   7   9   5 -0.1807 3.12444   2
   7   9   5 -4.2115 2.85117   4
   7   9   5 -3.6954 3.31163   5
   8   9   5 11.3033 4.55501   5
   8   9   5 15.2070 4.69606   2
   8   9   5 30.3424 9.04346   4
  -4  10   5 11.9056 3.50522   3
  -4  10   5 21.0611 7.57217   4
  -4  10   5 13.9520 3.78590   1
  -3  10   5 22.5708 5.52459   3
  -3  10   5 17.6269 3.86816   4
  -3  10   5 12.8494 3.29350   1
  -2  10   5 17.4485 5.26656   1
  -2  10   5 7.29667 3.07681   3
  -2  10   5 1.96523 2.79666   4
  -1  10   5 166.419 8.63824   3
  -1  10   5 168.112 8.68870   2
  -1  10   5 177.784 9.43213   4
   0  10   5 27.8065 4.31850   2
   0  10   5 38.5423 6.15309   4
   0  10   5 39.7139 5.19968   3
   1  10   5 13.7930 2.46986   5
   1  10   5 19.3727 5.71430   4
   1  10   5 7.75270 2.06768   2
   1  10   5 9.57002 2.52825   5
  -2 -10  -5 4.55771 2.39201   1
   2  10   5 5.66836 2.65765   4
   2  10   5 6.51537 3.13100   2
   2  10   5 7.23972 1.83152   5
   2  10   5 5.54839 2.04971   2
   2  10   5 6.44566 1.80388   5
  -3 -10  -5 4.11272 2.31369   1
   3  10   5 0.66729 1.60245   5
   3  10   5 2.46804 1.82192   2
   3  10   5 1.25041 2.65950   4
   3  10   5 6.31247 2.82943   2
   3  10   5 4.46129 2.16313   5
  -4 -10  -5 3.18869 2.53144   1
   4  10   5 0.40634 2.65764   5
   4  10   5 5.33371 2.27285   2
   4  10   5 -1.4195 1.68002   5
   4  10   5 3.34827 2.87337   4
  -5 -10  -5 3.30572 2.86829   1
   5  10   5 0.49063 2.29002   5
   5  10   5 -2.9243 3.12557   4
   5  10   5 -3.8579 2.20376   2
  -6 -10  -5 7.91103 3.00686   1
   6  10   5 5.74452 3.23673   2
   6  10   5 4.25826 3.46257   4
   6  10   5 8.46072 3.30789   5
  -7 -10  -5 5.07260 3.22539   1
   7  10   5 1.07112 3.84536   5
   7  10   5 4.32880 3.49736   2
   7  10   5 5.69577 4.06635   4
  -4  11   5 -0.3841 3.46996   1
  -3  11   5 24.5657 6.97284   3
  -3  11   5 5.99118 4.10728   4
  -3  11   5 -0.3747 3.27154   1
  -2  11   5 14.8162 3.85035   4
  -2  11   5 27.8275 6.75322   1
  -2  11   5 19.4482 6.53090   3
  -1  11   5 54.3385 6.19595   2
  -1  11   5 50.1081 6.17216   1
  -1  11   5 47.5276 7.39830   4
  -1  11   5 48.2187 6.40478   3
   0  11   5 2.85756 2.95525   4
   0  11   5 8.30848 3.13262   3
   0  11   5 9.54176 2.57694   2
   1  11   5 0.48556 2.63268   4
   1  11   5 -1.6697 1.30522   5
   1  11   5 -2.2236 1.78853   2
   1  11   5 6.17944 2.98324   3
   1  11   5 1.35035 1.61997   5
  -2 -11  -5 8.49233 2.89404   1
   2  11   5 7.87616 3.03412   4
   2  11   5 10.2192 2.10801   5
   2  11   5 17.1777 4.17115   2
  -3 -11  -5 22.7662 5.41334   1
   3  11   5 16.1950 3.90601   5
   3  11   5 20.6390 4.70662   5
   3  11   5 18.7871 4.37492   2
  -4 -11  -5 72.9815 7.57601   1
   4  11   5 76.1599 6.29791   2
   4  11   5 83.8209 8.35892   4
   4  11   5 86.8892 6.07964   5
  -5 -11  -5 6.59660 3.27617   1
   5  11   5 3.76164 2.87109   2
   5  11   5 2.63749 2.95561   5
   5  11   5 0.39487 3.72159   4
  -6 -11  -5 7.57347 3.98369   1
   6  11   5 6.38599 4.08870   4
   6  11   5 7.38619 3.51740   5
  -7 -11  -5 27.0389 9.11114   1
   7  11   5 7.37206 4.84965   4
   7  11   5 11.3178 4.66771   5
  -2  12   5 10.2154 4.72306   3
  -2  12   5 5.91232 3.92923   1
  -2  12   5 6.35214 3.92192   2
  -2  12   5 0.80515 4.23569   4
  -1  12   5 105.899 8.66055   2
  -1  12   5 116.799 9.89923   4
  -1  12   5 112.985 9.14131   3
  -1  12   5 98.1410 8.39807   1
   0  12   5 22.9688 4.75427   4
   0  12   5 17.0008 5.44492   2
   0  12   5 18.0206 6.04960   3
   1  12   5 44.3563 5.49422   2
   1  12   5 51.7881 3.80529   5
   1  12   5 46.4801 6.80187   3
   1  12   5 49.1003 4.25244   5
   1  12   5 55.8536 8.25722   4
  -2 -12  -5 13.7210 3.30266   1
   2  12   5 19.9258 4.93046   3
   2  12   5 14.3875 4.07456   5
   2  12   5 14.2033 3.87844   4
  -3 -12  -5 177.559 10.5195   1
   3  12   5 191.557 11.7992   4
   3  12   5 176.771 10.7268   2
   3  12   5 186.995 8.19992   5
  -4 -12  -5 9.76580 3.51642   1
   4  12   5 17.1270 4.55240   4
   4  12   5 27.7966 5.96220   5
  -5 -12  -5 5.78824 4.38893   1
   5  12   5 -0.7590 4.13836   4
   5  12   5 -3.5515 3.07566   5
  -6 -12  -5 32.8390 10.1266   1
   6  12   5 0.57596 4.23582   4
   0  13   5 -7.1832 4.08893   4
   0  13   5 1.49741 4.30668   3
   1  13   5 76.2041 4.88443   5
   1  13   5 68.8861 5.44377   5
   1  13   5 80.5172 10.6813   4
   1  13   5 54.9745 8.54307   3
   2  13   5 1.14403 2.24077   5
   2  13   5 1.03385 4.59508   4
   2  13   5 -5.2199 3.70761   3
  -3 -13  -5 6.69678 4.15049   1
   3  13   5 12.7447 3.09848   5
   3  13   5 -1.4980 4.64870   4
   3  13   5 13.4732 4.60475   3
   4  13   5 27.0471 6.71342   5
   4  13   5 14.3783 5.24293   3
   4  13   5 11.9142 5.40033   4
   2  11  -6 13.3153 5.82939   3
   2  11  -6 1.52948 4.93685   4
   2  11  -6 9.38068 4.61271   5
   1  11  -6 32.3740 9.46612   4
   1  11  -6 30.0418 7.66581   5
   1  11  -6 20.6361 5.71006   3
   0  11  -6 -3.6669 4.61533   3
   0  11  -6 5.03157 3.86653   5
  -1  11  -6 18.1028 5.11367   3
  -1  11  -6 22.4286 5.10420   1
   4  10  -6 3.62864 4.85945   3
   4  10  -6 1.14905 5.01949   4
   4  10  -6 -0.0937 4.05202   5
  -4 -10   6 5.43706 4.26657   1
   3  10  -6 -0.1344 4.37322   4
   3  10  -6 0.99950 4.12073   3
   3  10  -6 4.20260 3.98881   5
  -3 -10   6 0.14137 3.64601   1
   2  10  -6 -0.2625 3.80469   4
   2  10  -6 -4.4691 2.76370   5
   2  10  -6 0.10672 4.06476   3
  -2 -10   6 -3.0749 2.97714   1
   1  10  -6 4.84452 3.57111   5
   1  10  -6 -2.8715 3.34367   4
   1  10  -6 -0.2581 3.95158   3
   0  10  -6 11.9280 4.61434   3
   0  10  -6 7.99376 3.22497   5
   0  10  -6 8.96281 3.25708   4
  -1  10  -6 4.05395 4.08610   3
  -1  10  -6 4.97138 3.42760   5
  -2  10  -6 45.1373 8.40418   3
  -2  10  -6 24.7105 7.55761   1
  -2  10  -6 44.5164 6.91865   5
  -3  10  -6 -6.2090 4.07893   1
  -3  10  -6 -5.5469 4.69816   3
  -3  10  -6 -5.3788 2.79481   5
   5   9  -6 5.69299 4.30724   5
   5   9  -6 -1.4836 4.29842   3
   5   9  -6 5.21420 4.88884   4
  -5  -9   6 7.43258 4.06292   1
   4   9  -6 7.00698 4.07786   3
   4   9  -6 11.7094 4.64131   4
  -4  -9   6 4.15802 3.40406   1
   3   9  -6 9.87474 4.05206   4
   3   9  -6 3.71107 3.48171   5
   3   9  -6 4.00565 3.83870   3
  -3  -9   6 6.34577 3.23501   1
   2   9  -6 62.8223 7.07657   5
   2   9  -6 41.3140 6.78416   4
   2   9  -6 62.7290 7.33022   3
  -2  -9   6 50.5398 6.26588   1
   1   9  -6 3.29771 2.65049   5
   1   9  -6 10.0548 3.96195   3
   1   9  -6 6.26562 2.97935   4
   0   9  -6 -3.5714 3.19730   3
   0   9  -6 2.59580 2.88632   4
   0   9  -6 3.44000 2.66375   5
  -1   9  -6 17.9249 4.97029   4
  -1   9  -6 5.94076 3.49772   3
  -1   9  -6 8.44096 2.98384   5
  -2   9  -6 7.17863 3.32637   5
  -2   9  -6 6.35525 3.50322   3
  -2   9  -6 9.09441 3.44460   1
   2  -9   6 9.28831 2.62271   2
  -3   9  -6 5.39259 2.74076   5
  -3   9  -6 4.64670 4.26345   3
  -3   9  -6 8.17207 3.64281   1
   3  -9   6 5.77159 2.85423   2
  -4   9  -6 1.85339 3.72055   5
  -4   9  -6 2.85689 4.94457   3
  -4   9  -6 -0.4397 3.64281   1
   4  -9   6 -1.4277 3.38582   2
   6   8  -6 0.58250 5.33831   5
  -6  -8   6 4.13039 4.03158   1
   5   8  -6 6.64500 4.11456   4
   5   8  -6 -0.2770 3.89626   3
   5   8  -6 4.18645 4.36102   5
  -5  -8   6 0.17069 3.22503   1
   4   8  -6 4.18503 3.61201   4
   4   8  -6 3.67573 3.40607   3
   4   8  -6 -2.2254 3.63254   5
  -4  -8   6 4.84777 2.91565   1
   3   8  -6 1.52047 2.95462   5
   3   8  -6 5.02172 3.31749   4
   3   8  -6 1.15162 2.94270   3
  -3  -8   6 -0.9330 2.15851   1
  -3  -8   6 6.29679 3.43533   5
   2   8  -6 -2.0352 2.39220   4
   2   8  -6 -0.1589 2.72912   3
   2   8  -6 1.51318 2.31769   5
  -2  -8   6 -0.0370 2.17689   1
  -2  -8   6 1.17566 2.68339   5
   1   8  -6 5.41854 3.10058   3
   1   8  -6 5.58299 2.36069   4
   1   8  -6 8.06671 2.68559   5
  -1  -8   6 5.95802 2.44559   5
   0   8  -6 2.66726 4.07266   5
   0   8  -6 5.50067 2.93958   3
   0   8  -6 6.61287 2.52320   4
   0   8  -6 6.30658 2.59376   5
   0  -8   6 2.06465 2.38111   5
   0  -8   6 5.11683 3.49794   4
  -1   8  -6 2.75853 2.65465   3
  -1   8  -6 2.57326 1.96087   5
  -1   8  -6 2.28427 1.95010   4
   1  -8   6 1.86810 2.52300   2
  -2   8  -6 6.61267 2.97453   3
  -2   8  -6 5.42296 2.71238   1
  -2   8  -6 1.33255 2.10842   5
   2  -8   6 4.81967 2.12365   2
  -3   8  -6 0.44727 2.35047   5
  -3   8  -6 1.22837 2.91392   1
  -3   8  -6 2.61765 3.35642   3
   3  -8   6 -2.7691 2.27563   2
  -4   8  -6 3.37982 3.22546   1
  -4   8  -6 5.18933 4.26723   3
  -4   8  -6 -3.6782 2.76291   5
   4  -8   6 2.28116 3.04013   2
  -5   8  -6 16.0829 4.83006   3
  -5   8  -6 10.5710 3.94371   5
  -5   8  -6 16.5415 4.35616   1
   5  -8   6 13.8575 3.82946   2
   7   7  -6 -3.6095 4.51377   4
  -7  -7   6 5.55839 4.17033   1
   6   7  -6 219.046 13.7633   5
   6   7  -6 167.254 12.0143   4
   6   7  -6 179.831 10.4153   3
  -6  -7   6 200.116 10.8684   1
   5   7  -6 58.2247 8.58346   5
   5   7  -6 65.5888 8.56591   4
   5   7  -6 51.6248 7.02068   3
  -5  -7   6 62.3775 8.47722   5
  -5  -7   6 60.0144 6.98314   1
   4   7  -6 3.35898 3.07468   4
   4   7  -6 2.98078 2.79415   3
   4   7  -6 10.5438 3.76069   5
  -4  -7   6 3.22470 2.44269   1
  -4  -7   6 -2.9143 2.93043   5
   3   7  -6 1.53419 2.44804   3
   3   7  -6 6.74551 2.80315   5
   3   7  -6 0.71621 2.64097   4
  -3  -7   6 -0.0928 1.87076   1
  -3  -7   6 3.55101 2.75885   5
   2   7  -6 2.90997 3.15485   5
   2   7  -6 2.08535 2.19177   4
   2   7  -6 7.32363 2.57827   5
   2   7  -6 13.2350 4.60559   3
  -2  -7   6 1.79625 2.61277   5
  -2  -7   6 6.73408 2.18525   1
   1   7  -6 132.495 7.16233   5
   1   7  -6 127.429 8.48691   5
   1   7  -6 123.454 7.48885   3
   1   7  -6 138.627 7.15582   4
  -1  -7   6 127.548 6.68601   1
  -1  -7   6 138.579 7.33630   5
   0   7  -6 55.1117 4.78822   5
   0   7  -6 48.3103 5.68222   5
   0   7  -6 61.5369 5.53236   3
   0   7  -6 63.2820 5.00411   4
   0  -7   6 61.1775 5.44459   5
   0  -7   6 52.4312 3.26622   2
  -1   7  -6 19.8294 4.81523   5
  -1   7  -6 13.7418 3.79795   2
  -1   7  -6 19.5546 3.63374   4
  -1   7  -6 15.9313 4.49173   3
  -1   7  -6 11.7304 3.61936   5
   1  -7   6 14.0565 3.19001   2
   1  -7   6 11.1547 2.84891   4
  -2   7  -6 78.6827 4.21659   4
  -2   7  -6 71.7970 6.90553   5
  -2   7  -6 83.1554 5.96868   5
  -2   7  -6 83.2187 6.22963   1
  -2   7  -6 75.3583 5.94114   2
  -2   7  -6 90.2995 6.98739   3
   2  -7   6 80.3053 5.92451   5
   2  -7   6 72.5304 5.15876   2
   2  -7   6 84.3056 4.55699   4
  -3   7  -6 -1.5695 1.94194   5
  -3   7  -6 -2.5667 2.12443   1
  -3   7  -6 -0.9741 2.76755   3
   3  -7   6 4.76063 4.29168   5
   3  -7   6 3.81987 2.26734   2
  -4   7  -6 8.33363 3.08071   5
  -4   7  -6 4.85816 2.81468   1
  -4   7  -6 2.58759 3.07911   3
   4  -7   6 17.6285 5.37567   2
  -5   7  -6 67.8862 7.82731   3
  -5   7  -6 62.9805 7.50609   5
  -5   7  -6 54.7276 6.62741   1
   5  -7   6 71.6957 7.64294   2
  -6   7  -6 31.7050 7.66563   3
  -6   7  -6 35.6596 7.70197   1
  -6   7  -6 35.8229 7.50729   5
   6  -7   6 20.1978 4.84941   2
   7   6  -6 38.3627 9.00121   4
   6   6  -6 46.1536 8.34706   5
   6   6  -6 31.2532 5.88867   3
  -6  -6   6 25.2950 7.82236   5
  -6  -6   6 24.2932 5.64489   1
   5   6  -6 10.3693 3.88324   5
   5   6  -6 3.52970 3.00259   4
   5   6  -6 4.60877 3.10058   3
  -5  -6   6 5.24570 2.41949   1
  -5  -6   6 6.05924 2.03766   2
   4   6  -6 2.34052 2.68011   5
   4   6  -6 0.89592 2.60403   3
   4   6  -6 0.69668 2.25578   4
  -4  -6   6 0.04365 2.06971   1
  -4  -6   6 -0.8367 2.42481   5
  -4  -6   6 -1.1920 1.48425   2
  -4  -6   6 -2.2622 2.31102   2
   3   6  -6 123.119 8.07518   5
   3   6  -6 115.592 6.93252   3
   3   6  -6 112.279 7.14826   4
   3   6  -6 124.214 7.17543   5
  -3  -6   6 113.654 4.85640   2
  -3  -6   6 113.698 7.49509   5
  -3  -6   6 120.514 6.52091   1
  -3  -6   6 104.386 5.08938   2
   2   6  -6 12.3066 4.17632   4
   2   6  -6 8.35692 2.40425   5
   2   6  -6 15.2257 4.58419   5
   2   6  -6 14.1516 3.80418   3
  -2  -6   6 15.9498 2.42903   2
  -2  -6   6 17.3056 2.78197   2
  -2  -6   6 14.5067 4.34633   5
  -2  -6   6 12.3424 3.07054   1
   1   6  -6 103.213 6.85358   5
   1   6  -6 105.406 6.53145   3
   1   6  -6 113.398 6.33524   4
   1   6  -6 101.429 6.58703   1
   1   6  -6 107.017 6.08600   5
  -1  -6   6 108.364 6.20972   5
  -1  -6   6 99.4284 4.41169   2
  -1  -6   6 106.109 4.36101   2
  -1  -6   6 103.596 5.57481   1
   0   6  -6 28.3706 4.28681   3
   0   6  -6 24.8505 3.50235   4
   0   6  -6 20.7241 3.58086   5
   0   6  -6 28.6784 4.69120   1
   0   6  -6 27.1071 4.12490   5
   0  -6   6 23.4874 5.18632   4
   0  -6   6 22.9767 3.61038   5
  -1   6  -6 2.82884 1.82984   2
  -1   6  -6 3.20650 2.04959   5
  -1   6  -6 3.47485 1.66476   5
  -1   6  -6 11.7043 3.14745   4
  -1   6  -6 2.84389 1.90590   3
   1  -6   6 2.50482 2.03254   5
   1  -6   6 5.49539 1.65793   2
   1  -6   6 3.54443 2.22142   4
  -2   6  -6 10.8410 2.42504   4
  -2   6  -6 9.06872 2.24561   1
  -2   6  -6 10.1084 2.62810   3
  -2   6  -6 11.5638 3.64407   5
  -2   6  -6 13.7255 4.51745   2
  -2   6  -6 9.02724 2.53383   5
   2  -6   6 9.48169 1.79509   4
   2  -6   6 8.13062 1.97886   2
   2  -6   6 7.36580 2.32048   5
  -3   6  -6 4.54367 1.97594   5
  -3   6  -6 6.68342 2.65357   3
  -3   6  -6 5.49690 2.19203   1
  -3   6  -6 3.89906 1.65199   5
   3  -6   6 12.4318 4.17868   2
  -4   6  -6 58.8010 6.01940   5
  -4   6  -6 54.3948 6.04925   3
  -4   6  -6 55.0447 5.71232   1
  -4   6  -6 55.0701 12.0814   5
   4  -6   6 47.5287 6.34310   5
   4  -6   6 53.2531 5.84480   2
  -5   6  -6 4.34168 2.75797   5
  -5   6  -6 5.73900 2.80864   1
  -5   6  -6 1.01076 2.87808   3
   5  -6   6 5.33957 2.81858   2
  -6   6  -6 0.34799 3.60201   3
  -6   6  -6 6.02335 2.99448   5
  -6   6  -6 1.00953 3.02906   1
   6  -6   6 -2.6950 2.93457   2
  -7   6  -6 34.1171 8.05634   3
  -7   6  -6 33.0928 8.49912   5
  -7   6  -6 44.2528 8.90048   1
   7   5  -6 6.91979 3.95313   4
  -7  -5   6 5.62455 3.24506   1
  -7  -5   6 12.2693 4.43133   5
   6   5  -6 81.1919 8.30229   4
   6   5  -6 75.7352 5.81956   3
  -6  -5   6 72.1374 6.54184   1
  -6  -5   6 69.1782 8.03310   5
   5   5  -6 59.1635 6.87601   5
   5   5  -6 52.5342 4.82684   3
   5   5  -6 47.6227 7.60446   3
   5   5  -6 36.3211 6.18964   4
  -5  -5   6 34.8651 5.78642   5
  -5  -5   6 46.3121 5.03226   1
   4   5  -6 6.73526 2.53846   4
   4   5  -6 9.15239 2.37529   3
   4   5  -6 7.38350 2.68258   5
  -4  -5   6 15.4664 3.34689   2
  -4  -5   6 22.1370 5.42161   5
  -4  -5   6 8.09844 2.48787   2
  -4  -5   6 11.1207 3.23875   1
   3   5  -6 28.6902 4.52484   4
   3   5  -6 34.5241 5.75785   5
   3   5  -6 30.8882 4.99251   1
   3   5  -6 24.5128 4.38671   5
   3   5  -6 27.2726 4.07274   3
  -3  -5   6 32.9427 3.86865   2
  -3  -5   6 36.6365 4.24473   5
  -3  -5   6 32.8285 3.75482   1
  -3  -5   6 30.7532 3.06926   2
   2   5  -6 294.804 11.1665   5
   2   5  -6 302.211 10.9952   3
   2   5  -6 302.271 10.9471   5
   2   5  -6 286.886 10.4107   1
   2   5  -6 299.836 11.2695   4
  -2  -5   6 268.562 11.1317   5
  -2  -5   6 299.672 9.35841   2
  -2  -5   6 309.241 10.2677   1
   1   5  -6 343.127 11.9117   5
   1   5  -6 345.403 12.0534   3
   1   5  -6 339.825 11.8072   4
   1   5  -6 322.751 11.0198   1
   1   5  -6 329.284 11.4816   5
  -1  -5   6 333.587 10.9791   1
  -1  -5   6 312.517 11.6187   5
  -1  -5   6 345.472 11.8242   5
  -1  -5   6 347.478 10.2126   2
  -1  -5   6 338.989 12.2138   4
   0   5  -6 -1.7177 1.22212   5
   0   5  -6 -0.2186 1.32188   5
   0   5  -6 0.59600 1.47999   4
   0   5  -6 0.42470 1.69562   3
   0   5  -6 -0.2461 1.58571   1
   0  -5   6 1.53048 1.95778   5
   0  -5   6 2.13365 1.17390   2
   0  -5   6 -0.4641 1.21083   5
   0  -5   6 3.81781 1.86236   4
  -1   5  -6 72.1623 4.66755   5
  -1   5  -6 73.5706 4.63125   2
  -1   5  -6 69.8564 4.67907   1
  -1   5  -6 73.6533 5.32864   3
  -1   5  -6 77.9180 4.25121   4
  -1   5  -6 75.1340 5.23917   5
   1  -5   6 71.2504 5.00169   5
   1  -5   6 71.3795 4.23247   2
   1  -5   6 78.1917 5.01782   4
  -2   5  -6 233.708 9.96079   3
  -2   5  -6 221.688 9.32956   5
  -2   5  -6 230.268 7.66208   4
  -2   5  -6 235.439 8.87728   1
  -2   5  -6 208.794 9.25721   1
  -2   5  -6 231.034 8.93231   2
  -2   5  -6 235.091 9.02296   5
   2  -5   6 241.942 7.87173   4
   2  -5   6 230.985 9.10486   5
   2  -5   6 243.386 8.86634   2
  -3   5  -6 474.076 15.0524   1
  -3   5  -6 416.678 15.0992   2
  -3   5  -6 463.660 14.8728   5
  -3   5  -6 461.052 15.7887   3
   3  -5   6 467.745 14.8867   2
  -4   5  -6 45.1689 6.15802   5
  -4   5  -6 59.6014 5.32975   5
  -4   5  -6 61.1895 5.73616   3
  -4   5  -6 53.2239 5.02200   1
   4  -5   6 64.9916 5.38145   2
   4  -5   6 63.0126 5.37452   5
  -5   5  -6 2.21530 2.00818   1
  -5   5  -6 3.24530 2.22687   5
  -5   5  -6 3.55515 2.88645   3
   5  -5   6 2.86243 2.55077   2
  -6   5  -6 -0.6709 2.52446   1
  -6   5  -6 -3.5207 2.32930   5
  -6   5  -6 3.40461 3.10236   3
   6  -5   6 0.72614 3.11275   2
  -7   5  -6 5.75341 3.51134   1
  -7   5  -6 11.5086 4.57831   3
  -7   5  -6 2.12882 3.23232   5
   7  -5   6 0.30753 3.27835   2
   8   4  -6 73.7748 10.7456   4
  -8  -4   6 69.6919 9.51945   1
  -8  -4   6 93.7283 12.0071   5
   7   4  -6 60.8275 8.86929   4
  -7  -4   6 33.1918 7.83916   5
  -7  -4   6 49.9117 7.47068   1
   6   4  -6 13.8596 3.98716   3
   6   4  -6 8.28285 3.57589   5
   6   4  -6 7.63134 3.01525   4
  -6  -4   6 6.17735 2.28741   1
  -6  -4   6 10.7895 3.66564   5
   5   4  -6 62.6446 4.56973   3
   5   4  -6 58.9150 5.21979   3
   5   4  -6 68.6559 6.61918   4
   5   4  -6 66.9050 6.54644   5
  -5  -4   6 77.5833 7.64902   2
  -5  -4   6 57.7949 4.71046   1
  -5  -4   6 57.7196 5.78695   5
   4   4  -6 117.117 6.96775   1
   4   4  -6 125.424 7.47725   4
   4   4  -6 116.471 5.87875   3
   4   4  -6 116.480 6.84234   5
  -4  -4   6 110.929 6.71647   2
  -4  -4   6 102.696 8.13911   5
  -4  -4   6 116.220 5.90471   1
  -4  -4   6 105.329 6.53234   5
   3   4  -6 589.216 18.6617   5
   3   4  -6 616.092 17.6284   1
   3   4  -6 591.284 18.1997   5
   3   4  -6 614.218 19.2964   4
   3   4  -6 604.718 17.8411   3
  -3  -4   6 577.519 17.8037   3
  -3  -4   6 618.263 18.7171   5
  -3  -4   6 635.789 17.6978   1
  -3  -4   6 592.917 17.2350   2
  -3  -4   6 609.437 17.4007   2
  -3  -4   6 593.412 18.5682   5
   2   4  -6 427.384 14.1593   4
   2   4  -6 414.500 13.3016   3
   2   4  -6 414.968 13.3946   5
   2   4  -6 410.652 13.5120   5
   2   4  -6 401.710 12.6809   1
  -2  -4   6 409.787 13.5783   5
  -2  -4   6 411.099 13.4478   3
  -2  -4   6 424.121 12.6846   1
  -2  -4   6 409.395 12.3210   2
  -2  -4   6 415.227 13.5817   5
  -2  -4   6 415.725 12.4821   2
   1   4  -6 186.507 7.87434   3
   1   4  -6 180.771 6.97704   1
   1   4  -6 190.617 7.97277   4
   1   4  -6 191.369 7.92571   5
   1   4  -6 189.151 7.58029   5
  -1  -4   6 187.029 8.27782   3
  -1  -4   6 189.243 10.7017   5
  -1  -4   6 191.043 6.93403   1
  -1  -4   6 198.364 7.85414   5
  -1  -4   6 197.902 6.95384   2
  -1  -4   6 184.837 6.68590   2
  -1  -4   6 211.971 8.31943   4
   0   4  -6 -0.4723 1.26780   1
   0   4  -6 -0.2569 1.45733   5
   0   4  -6 -1.4505 1.12454   4
   0   4  -6 1.13261 1.63694   3
   0   4  -6 0.80717 1.24332   5
   0  -4   6 1.26669 1.29702   5
   0  -4   6 -0.7571 1.60820   4
   0  -4   6 -0.0430 1.06629   2
   0  -4   6 0.09227 1.05903   5
   0  -4   6 0.30507 1.85097   3
  -1   4  -6 26.4573 3.63710   3
  -1   4  -6 26.2726 3.19143   1
  -1   4  -6 34.5322 3.54358   5
  -1   4  -6 26.6838 3.44653   5
  -1   4  -6 28.9842 3.53284   2
  -1   4  -6 29.6061 3.00529   4
   1  -4   6 33.2728 3.38064   4
   1  -4   6 30.5491 3.42046   5
   1  -4   6 28.9685 3.42865   5
   1  -4   6 32.3543 3.14836   2
  -2   4  -6 78.0316 5.35709   3
  -2   4  -6 74.7577 4.57007   5
  -2   4  -6 68.7261 4.79512   2
  -2   4  -6 73.1831 4.66834   4
  -2   4  -6 77.6043 5.10715   5
  -2   4  -6 83.2058 4.53033   1
  -2   4  -6 77.4394 4.97039   1
   2  -4   6 77.0765 4.92910   5
   2  -4   6 78.0534 4.95027   5
   2  -4   6 75.0070 4.62872   2
   2  -4   6 82.7137 4.13478   4
  -3   4  -6 0.19370 1.30291   1
  -3   4  -6 0.23400 1.98711   1
  -3   4  -6 -0.3237 1.93573   5
  -3   4  -6 1.85928 1.82459   5
  -3   4  -6 -0.7218 1.64071   3
   3  -4   6 0.12785 1.60867   2
   3  -4   6 2.75653 1.85212   5
   3  -4   6 0.44245 1.03455   4
  -4   4  -6 9.89855 3.11237   1
  -4   4  -6 14.9278 4.05835   5
  -4   4  -6 10.5548 2.63713   3
  -4   4  -6 16.2155 4.56371   5
   4  -4   6 14.5799 4.00882   2
   4  -4   6 9.20185 2.48100   5
  -5   4  -6 5.12679 2.52861   5
  -5   4  -6 2.41424 1.82758   1
  -5   4  -6 -1.4182 2.90872   5
  -5   4  -6 1.73685 2.37693   3
   5  -4   6 6.01334 2.33064   5
   5  -4   6 2.56539 2.09865   2
  -6   4  -6 9.23551 2.81900   5
  -6   4  -6 6.43022 2.53986   1
  -6   4  -6 15.7987 5.07236   3
   6  -4   6 9.58056 3.46118   2
  -7   4  -6 88.3750 8.28335   1
  -7   4  -6 120.334 9.00432   3
  -7   4  -6 100.530 8.12944   5
   7  -4   6 101.668 8.99377   2
  -8   4  -6 1.03115 4.36390   3
  -8   4  -6 4.12945 3.96224   5
  -8   4  -6 4.43038 4.03328   1
   8  -4   6 2.59309 3.81219   2
   8   3  -6 -1.5430 4.15567   2
   8   3  -6 -2.7195 4.34717   4
  -8  -3   6 4.41550 3.59880   1
  -8  -3   6 6.99690 4.98476   5
   7   3  -6 16.4514 3.80209   4
   7   3  -6 19.4034 6.67210   2
  -7  -3   6 17.4130 5.48192   1
  -7  -3   6 9.20418 3.61151   5
   6   3  -6 39.9209 5.95087   5
   6   3  -6 41.6664 6.56375   4
  -6  -3   6 38.5182 6.65898   5
  -6  -3   6 34.9198 5.00532   1
   5   3  -6 86.0578 6.85941   4
   5   3  -6 85.5473 4.62248   3
   5   3  -6 79.6712 4.85498   3
   5   3  -6 83.4971 6.40645   5
  -5  -3   6 82.0473 5.29797   1
  -5  -3   6 92.3266 6.48777   5
  -5  -3   6 95.4454 7.64869   5
   4   3  -6 1.87632 1.99671   4
   4   3  -6 -0.6096 1.53396   3
   4   3  -6 -0.9819 1.58868   5
   4   3  -6 -3.0896 2.05632   1
  -4  -3   6 -0.5277 1.64608   5
  -4  -3   6 1.04812 2.52730   5
  -4  -3   6 0.90842 1.32571   1
  -4  -3   6 1.68574 2.27063   2
   3   3  -6 10.4013 3.11953   5
   3   3  -6 14.6355 2.77563   3
   3   3  -6 6.77291 2.21410   5
   3   3  -6 15.9615 3.16863   1
  -3  -3   6 14.6234 3.83486   5
  -3  -3   6 11.2689 2.24415   1
  -3  -3   6 12.3849 3.38118   5
  -3  -3   6 16.0472 3.34937   2
  -3  -3   6 11.9331 3.19850   3
   2   3  -6 81.0888 5.25084   5
   2   3  -6 87.3981 4.97763   5
   2   3  -6 81.2319 5.28376   4
   2   3  -6 91.6745 4.37604   1
   2   3  -6 91.9170 4.76523   3
  -2  -3   6 85.0475 4.50774   2
  -2  -3   6 84.5597 5.71457   4
  -2  -3   6 92.8238 5.27724   5
  -2  -3   6 83.6095 4.80937   2
  -2  -3   6 87.1275 4.02378   1
  -2  -3   6 91.8977 4.98487   3
   1   3  -6 600.374 17.9441   5
   1   3  -6 626.836 18.5010   4
   1   3  -6 607.177 18.0748   3
   1   3  -6 639.095 17.0016   1
   1   3  -6 620.974 18.1932   5
  -1  -3   6 618.464 16.9309   1
  -1  -3   6 639.853 18.5531   4
  -1  -3   6 633.532 18.0466   5
  -1  -3   6 626.462 17.5298   2
  -1  -3   6 622.779 18.2348   5
  -1  -3   6 617.201 18.0538   3
  -1  -3   6 628.481 17.4709   2
   0   3  -6 56.4760 4.06459   5
   0   3  -6 64.8315 3.29869   1
   0   3  -6 57.8909 4.98689   5
   0   3  -6 67.1035 4.28637   3
   0   3  -6 58.5442 3.79604   4
   0  -3   6 60.2902 3.84524   5
   0  -3   6 55.8800 4.37706   3
   0  -3   6 65.9544 4.07742   4
   0  -3   6 55.0336 3.44486   2
   0  -3   6 56.8588 4.43507   5
  -1   3  -6 42.3436 3.04227   1
  -1   3  -6 42.2096 3.78257   3
  -1   3  -6 43.5864 3.23350   5
  -1   3  -6 44.1794 3.44552   5
  -1   3  -6 45.8558 3.22136   4
  -1   3  -6 44.6990 3.68040   2
  -1   3  -6 44.2887 2.87969   1
   1  -3   6 50.5677 3.44190   4
   1  -3   6 44.3768 3.24651   2
   1  -3   6 42.6353 3.82266   5
   1  -3   6 44.7004 3.69302   3
   1  -3   6 44.5099 3.69262   5
  -2   3  -6 446.662 13.2794   1
  -2   3  -6 450.056 13.9590   2
  -2   3  -6 445.627 14.0099   5
  -2   3  -6 444.398 14.4335   3
  -2   3  -6 460.472 13.8925   5
  -2   3  -6 437.832 13.1765   1
   2  -3   6 451.301 13.8593   2
   2  -3   6 460.808 13.9683   5
   2  -3   6 455.097 13.8374   5
   2  -3   6 453.199 12.8821   4
   2  -3   6 415.590 14.2956   3
  -3   3  -6 377.493 12.3252   5
  -3   3  -6 393.738 12.1387   1
  -3   3  -6 386.387 13.0877   3
  -3   3  -6 383.685 12.0272   1
  -3   3  -6 378.851 12.6130   5
  -3   3  -6 364.630 12.8562   2
   3  -3   6 362.310 10.7342   4
   3  -3   6 395.153 12.8211   2
   3  -3   6 359.592 12.2675   5
   3  -3   6 365.579 12.3613   5
  -4   3  -6 3.13184 1.91613   5
  -4   3  -6 -0.5491 1.56167   3
  -4   3  -6 -1.0168 1.27273   5
  -4   3  -6 -0.0930 1.30261   1
   4  -3   6 -0.2483 1.44251   5
   4  -3   6 -0.6055 1.62896   2
  -5   3  -6 4.50017 2.02223   1
  -5   3  -6 7.21237 2.50931   5
  -5   3  -6 4.14192 1.81103   5
  -5   3  -6 -0.0750 1.77642   3
   5  -3   6 3.35648 2.34413   2
   5  -3   6 1.53417 2.21850   5
  -6   3  -6 18.5893 4.74316   5
  -6   3  -6 28.0225 8.00459   5
  -6   3  -6 21.8842 4.65275   1
  -6   3  -6 26.6261 5.10301   3
   6  -3   6 29.6850 5.78016   2
   6  -3   6 27.3779 5.51328   5
  -7   3  -6 101.908 8.17146   1
  -7   3  -6 92.6273 7.99935   3
  -7   3  -6 99.1636 7.58015   5
   7  -3   6 81.0799 8.30648   2
  -8   3  -6 55.0445 7.36383   1
  -8   3  -6 58.3084 8.04035   3
  -8   3  -6 44.0202 8.30609   5
   8   2  -6 33.2308 9.29624   4
  -8  -2   6 25.3692 7.18123   1
   7   2  -6 -0.5754 2.89068   4
   7   2  -6 -2.1481 2.99351   2
  -7  -2   6 2.70141 2.67182   1
  -7  -2   6 -2.2717 2.98096   5
   6   2  -6 5.65220 2.48204   2
   6   2  -6 7.11815 2.97932   4
   6   2  -6 4.20577 2.54701   5
  -6  -2   6 15.4167 4.27732   1
  -6  -2   6 7.93292 3.07361   5
   5   2  -6 97.4698 6.54912   5
   5   2  -6 102.989 4.37138   3
   5   2  -6 101.207 4.11615   3
   5   2  -6 101.304 7.20409   4
  -5  -2   6 101.639 6.40595   5
  -5  -2   6 105.750 7.10357   5
  -5  -2   6 99.7524 5.55078   1
   4   2  -6 14.0482 3.88620   4
   4   2  -6 17.1111 3.73264   1
   4   2  -6 12.3004 2.57777   3
   4   2  -6 13.5183 3.45336   5
  -4  -2   6 7.47941 2.79112   2
  -4  -2   6 16.8331 3.45893   5
  -4  -2   6 16.4419 2.69443   1
  -4  -2   6 22.5266 4.34623   5
   3   2  -6 61.3112 4.98168   4
   3   2  -6 58.5600 4.21212   5
   3   2  -6 61.3667 3.66859   3
   3   2  -6 53.8303 4.69221   5
   3   2  -6 64.8397 3.95601   1
  -3  -2   6 62.0982 4.69887   5
  -3  -2   6 67.7330 4.59059   5
  -3  -2   6 64.8113 3.88510   3
  -3  -2   6 62.8137 3.46467   1
  -3  -2   6 58.4944 4.82473   2
   2   2  -6 169.834 6.60068   3
   2   2  -6 178.460 6.80497   5
   2   2  -6 176.301 7.66379   4
   2   2  -6 175.567 6.92765   5
   2   2  -6 171.112 6.00204   1
  -2  -2   6 166.105 7.37480   4
  -2  -2   6 178.204 6.94168   2
  -2  -2   6 171.383 6.94652   2
  -2  -2   6 176.036 6.72322   3
  -2  -2   6 179.387 7.06385   5
  -2  -2   6 183.769 7.27315   5
   1   2  -6 183.550 7.36814   4
   1   2  -6 157.191 5.74961   1
   1   2  -6 189.779 6.84550   5
   1   2  -6 183.882 7.00635   3
  -1  -2   6 185.677 6.96137   5
  -1  -2   6 188.855 7.22974   5
  -1  -2   6 191.286 7.37668   4
  -1  -2   6 186.187 7.00958   3
  -1  -2   6 182.423 6.75752   2
  -1  -2   6 190.484 5.89376   1
  -1  -2   6 185.562 6.96501   2
   0   2  -6 -0.0476 1.06839   5
   0   2  -6 -1.4996 0.88700   5
   0   2  -6 1.23742 1.15988   3
   0   2  -6 0.25512 0.94563   4
   0   2  -6 0.70608 0.67762   1
   0  -2   6 -2.2918 1.30136   3
   0  -2   6 -0.2677 1.17227   5
   0  -2   6 -0.7923 1.25863   4
   0  -2   6 -0.6148 0.83455   5
   0  -2   6 0.13461 0.85449   2
  -1   2  -6 990.048 26.9376   2
  -1   2  -6 994.947 25.7979   1
  -1   2  -6 1028.21 25.8955   1
  -1   2  -6 978.736 26.7407   5
  -1   2  -6 991.558 27.4591   3
  -1   2  -6 991.751 26.7458   4
  -1   2  -6 1019.22 27.1358   5
   1  -2   6 1063.29 27.5027   3
   1  -2   6 976.940 26.9352   2
   1  -2   6 1020.53 26.8277   5
   1  -2   6 1005.44 26.6918   4
  -2   2  -6 246.850 9.30251   3
  -2   2  -6 256.751 8.37992   4
  -2   2  -6 267.091 9.18185   5
  -2   2  -6 256.606 8.16172   1
  -2   2  -6 256.564 9.23228   2
  -2   2  -6 263.781 8.31860   1
   2  -2   6 250.685 9.03597   2
   2  -2   6 254.377 8.31994   4
   2  -2   6 263.190 9.08450   5
   2  -2   6 254.434 9.26853   3
   2  -2   6 254.508 8.91167   5
  -3   2  -6 126.079 5.80551   5
  -3   2  -6 123.837 5.30627   1
  -3   2  -6 127.867 6.44710   2
   3  -2   6 126.414 5.81955   5
   3  -2   6 125.551 5.83142   5
   3  -2   6 116.585 5.89849   2
   3  -2   6 119.585 6.29791   3
   3  -2   6 124.639 4.97803   4
  -4   2  -6 119.583 6.28315   3
  -4   2  -6 122.782 5.75019   1
  -4   2  -6 120.663 6.72915   5
  -4   2  -6 115.100 5.92562   5
   4  -2   6 119.166 6.46276   5
   4  -2   6 123.611 6.26502   5
   4  -2   6 117.330 4.81675   4
   4  -2   6 116.213 6.52993   2
   4  -2   6 116.767 4.56681   4
  -5   2  -6 13.5909 3.56552   1
  -5   2  -6 12.5629 3.57583   5
  -5   2  -6 11.6434 3.69313   3
  -5   2  -6 9.00257 3.11586   5
   5  -2   6 13.0102 2.52757   4
   5  -2   6 17.8467 4.34884   2
   5  -2   6 15.4531 2.15288   4
   5  -2   6 13.4584 4.16778   5
  -6   2  -6 33.7631 4.74188   3
  -6   2  -6 26.6474 4.97225   5
  -6   2  -6 30.4483 4.80065   1
  -6   2  -6 48.6374 7.02201   5
   6  -2   6 29.7248 5.19890   2
   6  -2   6 30.1781 5.60792   5
  -7   2  -6 -2.5551 2.33916   1
  -7   2  -6 3.54126 2.95182   3
  -7   2  -6 -1.0373 2.25971   5
   7  -2   6 0.85957 2.92299   2
   7  -2   6 2.92665 3.21405   5
  -8   2  -6 2.95888 3.79141   5
  -8   2  -6 2.14833 3.67590   3
  -8   2  -6 2.42971 2.82598   1
   8  -2   6 4.65241 3.88876   2
  -9   2  -6 7.66108 4.92927   3
  -9   2  -6 2.68403 3.61096   1
  -9   2  -6 2.44787 4.75859   5
   8   1  -6 0.20117 3.75080   4
   8   1  -6 3.09581 3.98852   2
  -8  -1   6 0.27329 3.34051   1
  -8  -1   6 1.18773 4.23921   5
   7   1  -6 3.04535 3.21037   2
   7   1  -6 1.15927 3.19634   4
  -7  -1   6 2.43846 3.30522   5
  -7  -1   6 1.38291 2.30997   1
   6   1  -6 17.0428 5.12759   2
   6   1  -6 19.9456 5.49166   4
  -6  -1   6 12.3724 3.26157   5
  -6  -1   6 8.28967 2.16719   1
   5   1  -6 16.5933 4.01641   2
   5   1  -6 26.0344 4.44915   5
   5   1  -6 16.1514 4.21475   4
   5   1  -6 12.3502 3.02021   1
  -5  -1   6 25.4838 4.94202   5
  -5  -1   6 20.4568 3.26422   1
  -5  -1   6 19.2014 4.17101   5
   4   1  -6 86.2922 5.96487   4
   4   1  -6 80.9340 4.66887   1
   4   1  -6 79.2997 4.90147   5
   4   1  -6 80.3775 3.43885   3
  -4  -1   6 87.4950 5.46384   5
  -4  -1   6 78.9130 5.03876   5
  -4  -1   6 68.0405 4.07793   1
   3   1  -6 2.22621 1.20565   1
   3   1  -6 2.75200 1.30391   5
   3   1  -6 1.39062 1.94714   3
   3   1  -6 2.43549 1.73749   4
   3   1  -6 2.81981 1.29329   5
  -3  -1   6 2.82645 0.91897   1
  -3  -1   6 2.58668 1.69411   5
  -3  -1   6 5.09370 1.58940   5
  -3  -1   6 3.17872 1.39175   3
   2   1  -6 92.2655 5.24804   4
   2   1  -6 93.9237 4.49920   5
   2   1  -6 97.1375 4.61844   5
   2   1  -6 88.2590 3.73822   1
   2   1  -6 95.3468 4.31364   3
  -2  -1   6 98.3041 3.71547   1
  -2  -1   6 86.8810 4.26900   3
  -2  -1   6 91.5870 5.19367   4
  -2  -1   6 92.6580 4.77500   5
  -2  -1   6 92.5204 5.03379   2
   1   1  -6 437.006 13.5799   4
   1   1  -6 424.825 12.6346   5
   1   1  -6 425.409 11.3949   1
   1   1  -6 422.607 12.8260   5
   1   1  -6 424.940 12.8090   3
  -1  -1   6 442.541 13.2038   2
  -1  -1   6 433.291 13.1197   5
  -1  -1   6 443.850 13.2282   2
  -1  -1   6 441.458 12.8287   3
  -1  -1   6 437.620 13.4679   4
  -1  -1   6 434.957 11.4571   1
  -1  -1   6 425.467 12.8395   5
   0   1  -6 1.65312 0.72427   5
   0   1  -6 1.33679 0.99382   5
   0   1  -6 0.84400 1.16043   3
   0   1  -6 0.69952 0.50598   1
   0   1  -6 1.80022 0.92704   4
   0  -1   6 6.27288 2.23867   4
   0  -1   6 1.70058 1.01682   5
   0  -1   6 0.90246 1.31444   3
   0  -1   6 2.12409 0.87776   2
   0  -1   6 1.46362 0.94112   5
  -1   1  -6 335.134 9.06764   1
  -1   1  -6 317.538 10.0693   5
  -1   1  -6 324.917 10.5508   2
  -1   1  -6 332.276 10.3864   5
  -1   1  -6 322.032 10.3706   4
  -1   1  -6 323.660 10.7379   3
  -1   1  -6 322.573 9.00477   1
   1  -1   6 335.576 10.6840   3
   1  -1   6 316.183 10.4698   2
   1  -1   6 332.874 10.2937   5
   1  -1   6 347.504 10.4743   4
   1  -1   6 319.266 10.4376   5
  -2   1  -6 230.534 7.86712   4
  -2   1  -6 231.121 7.22841   1
  -2   1  -6 232.082 8.52115   2
  -2   1  -6 232.486 8.02289   5
  -2   1  -6 235.484 8.37539   5
   2  -1   6 243.072 7.95540   4
   2  -1   6 230.772 8.50571   2
   2  -1   6 237.412 8.53044   3
   2  -1   6 243.269 8.13749   5
   2  -1   6 231.332 8.35397   5
  -3   1  -6 347.265 12.0155   3
  -3   1  -6 376.299 12.4980   5
  -3   1  -6 359.679 12.1707   2
  -3   1  -6 364.138 10.9346   1
  -3   1  -6 360.408 11.7089   5
   3  -1   6 364.731 10.8793   4
   3  -1   6 366.193 12.1329   2
   3  -1   6 367.452 11.5631   5
   3  -1   6 354.564 11.9420   5
   3  -1   6 352.693 11.9999   3
  -4   1  -6 8.26646 2.70462   1
  -4   1  -6 15.3040 2.99457   5
  -4   1  -6 18.1340 3.40183   5
  -4   1  -6 14.3917 3.12359   3
   4  -1   6 10.6298 3.14601   5
   4  -1   6 15.8055 3.53243   5
   4  -1   6 9.70833 2.96938   2
   4  -1   6 11.6273 2.49774   4
   4  -1   6 14.2627 3.13455   1
   4  -1   6 10.5611 2.51729   4
   4  -1   6 4.80768 4.48088   3
  -5   1  -6 1.26000 1.56751   1
  -5   1  -6 0.36182 2.37244   5
  -5   1  -6 -1.5003 1.41368   5
  -5   1  -6 1.72682 1.81718   3
   5  -1   6 0.87325 1.21556   4
   5  -1   6 0.51538 1.74180   5
   5  -1   6 -0.0370 1.79654   2
   5  -1   6 1.11409 2.18768   5
   5  -1   6 0.45193 1.46048   4
  -6   1  -6 83.4757 5.71896   1
  -6   1  -6 89.8688 6.05616   3
  -6   1  -6 66.1353 8.18086   5
  -6   1  -6 89.2286 6.23916   5
   6  -1   6 88.5748 5.03533   4
   6  -1   6 83.3101 4.35202   4
   6  -1   6 95.3346 6.87230   5
   6  -1   6 84.7769 6.80622   2
  -7   1  -6 32.0175 4.97266   1
  -7   1  -6 24.7660 5.18475   3
  -7   1  -6 31.4624 5.93198   5
   7  -1   6 40.1039 5.53913   2
   7  -1   6 44.4034 7.14078   5
   7  -1   6 24.1722 3.44009   4
  -8   1  -6 -0.9250 2.91901   3
  -8   1  -6 -3.2091 3.09944   5
  -8   1  -6 -0.8243 2.50142   1
   8  -1   6 -0.7468 3.21505   2
  -9   1  -6 1.39024 3.35544   1
  -9   1  -6 4.77958 4.07627   5
  -9   1  -6 4.92272 4.68341   3
   9  -1   6 6.27694 4.22873   2
   8   0  -6 -5.3481 3.93963   2
   8   0  -6 1.33772 3.68953   4
  -8   0   6 4.01664 3.24698   5
  -8   0   6 -2.4956 2.96516   1
   7   0  -6 -0.1394 2.96609   2
   7   0  -6 3.72414 3.24908   4
  -7   0   6 3.56762 2.52916   1
  -7   0   6 4.68912 3.19885   5
   6   0  -6 1.44997 2.75976   5
   6   0  -6 1.23532 2.40610   2
   6   0  -6 1.32678 2.48571   4
  -6   0   6 0.47658 2.00006   5
  -6   0   6 -0.3582 1.72091   1
   5   0  -6 0.87891 1.83338   2
   5   0  -6 1.97875 1.94097   4
   5   0  -6 0.66544 1.98022   5
   5   0  -6 1.55259 2.49127   1
  -5   0   6 2.22978 1.75158   5
  -5   0   6 4.87211 2.08793   5
  -5   0   6 0.56969 1.30240   1
   4   0  -6 40.7645 3.76593   5
   4   0  -6 54.5026 3.98161   1
   4   0  -6 48.7172 4.82067   4
  -4   0   6 47.8874 3.34298   1
  -4   0   6 49.8461 4.26447   5
  -4   0   6 43.4159 3.90271   5
   3   0  -6 93.3444 5.49487   4
   3   0  -6 81.4581 4.47488   5
   3   0  -6 91.4937 3.73380   3
   3   0  -6 88.7859 4.38436   5
   3   0  -6 88.4030 4.15874   1
  -3   0   6 88.6440 3.74206   3
  -3   0   6 86.7844 4.72626   5
  -3   0   6 91.4695 4.85494   5
  -3   0   6 106.934 6.73097   4
  -3   0   6 93.2645 3.99310   1
  -3   0   6 90.1664 5.50586   2
   2   0  -6 100.379 4.42493   5
   2   0  -6 102.161 3.71364   1
   2   0  -6 107.320 5.50062   4
  -2   0   6 100.874 5.38386   2
  -2   0   6 108.671 4.94859   5
  -2   0   6 102.089 4.28603   3
  -2   0   6 100.720 5.27402   4
  -2   0   6 97.6528 3.62602   1
  -2   0   6 102.631 4.73078   5
   1   0  -6 38.7614 2.67906   3
   1   0  -6 38.6586 2.57587   5
   1   0  -6 38.9791 3.31449   4
  -1   0   6 36.5120 3.27635   2
  -1   0   6 37.4676 2.93787   2
  -1   0   6 34.5951 2.82188   5
  -1   0   6 35.1059 2.66363   5
  -1   0   6 38.9834 2.84166   3
  -1   0   6 44.9764 3.27621   4
   0   0  -6 67.8671 3.72126   3
   0   0  -6 72.7929 4.05586   4
   0   0  -6 70.4333 3.47234   5
   0   0  -6 72.8345 3.44907   5
   0   0   6 70.9499 3.57613   5
   0   0   6 75.9250 4.26476   4
   0   0   6 69.2203 3.90514   2
   0   0   6 71.7155 3.75714   3
   0   0   6 70.2356 3.71860   5
  -1   0  -6 31.2668 1.50179   1
  -1   0  -6 31.4279 2.45454   5
  -1   0  -6 28.6890 2.62447   3
  -1   0  -6 32.9913 2.85571   4
  -1   0  -6 35.9075 2.50580   5
  -1   0  -6 34.0749 2.72054   2
   1   0   6 29.9846 2.72298   3
   1   0   6 30.7647 2.97710   4
   1   0   6 32.0775 2.64630   5
   1   0   6 30.7498 2.65867   5
   1   0   6 32.9438 2.85753   2
  -2   0  -6 654.394 18.6646   2
  -2   0  -6 639.395 17.8356   5
  -2   0  -6 655.966 18.1768   4
  -2   0  -6 631.223 18.5858   3
  -2   0  -6 639.206 16.8735   1
  -2   0  -6 662.322 18.1856   5
   2   0   6 645.020 18.0654   4
   2   0   6 638.711 18.6041   2
   2   0   6 644.603 18.2471   5
   2   0   6 658.299 18.0018   5
   2   0   6 639.936 18.4931   3
  -3   0  -6 32.1082 3.11811   5
  -3   0  -6 32.4834 3.35471   5
  -3   0  -6 33.1510 2.52269   1
  -3   0  -6 34.1674 3.18923   3
  -3   0  -6 36.8299 3.51413   2
   3   0   6 35.2723 3.38641   5
   3   0   6 33.3166 3.13693   3
   3   0   6 31.2757 2.68153   1
   3   0   6 34.3998 3.10133   4
   3   0   6 33.2728 3.03713   5
   3   0   6 30.5632 3.23343   2
  -4   0  -6 74.5158 4.11199   1
  -4   0  -6 78.9810 4.63488   5
  -4   0  -6 75.2473 4.89427   3
  -4   0  -6 74.9263 5.26591   5
  -4   0  -6 73.7601 5.09675   2
   4   0   6 76.6063 4.12952   4
   4   0   6 60.5884 4.90200   3
   4   0   6 75.8041 4.21209   4
   4   0   6 76.5536 4.85307   2
   4   0   6 74.6114 4.69413   5
   4   0   6 71.9606 4.33280   1
   4   0   6 74.2748 4.71658   5
  -5   0  -6 29.5859 4.86023   5
  -5   0  -6 36.0197 4.08798   3
  -5   0  -6 31.1382 3.84435   5
  -5   0  -6 39.2657 3.71608   1
   5   0   6 33.7896 4.44066   2
   5   0   6 30.5572 3.85834   4
   5   0   6 27.4603 4.48912   1
   5   0   6 22.2770 4.60664   5
   5   0   6 36.4197 4.55127   5
   5   0   6 37.0334 3.41142   4
  -6   0  -6 53.2396 5.01037   5
  -6   0  -6 56.2154 4.92538   1
  -6   0  -6 51.2977 5.01610   3
  -6   0  -6 68.5179 6.67417   5
   6   0   6 54.7262 4.97064   4
   6   0   6 58.4400 5.93392   2
   6   0   6 48.5568 4.07417   4
   6   0   6 60.2422 5.83662   5
  -7   0  -6 12.5569 4.25272   1
  -7   0  -6 14.5836 4.67727   3
  -7   0  -6 8.88972 3.05370   5
   7   0   6 7.99249 2.78640   2
   7   0   6 6.00525 1.89064   4
   7   0   6 7.79985 3.16051   5
  -8   0  -6 4.59661 2.72084   1
  -8   0  -6 4.80570 3.29053   3
  -8   0  -6 3.85117 3.24461   5
   8   0   6 -2.4161 3.15962   2
   8   0   6 2.10112 2.44701   4
   8   0   6 6.10810 3.78786   5
  -9   0  -6 0.04230 3.59309   1
  -9   0  -6 -7.4014 3.93221   3
  -9   0  -6 2.65794 4.33222   5
   9   0   6 5.72593 4.56031   2
   8  -1  -6 -7.7084 4.01146   2
   8  -1  -6 5.18519 4.32013   4
  -8   1   6 -4.8002 2.99720   5
  -8   1   6 6.72847 3.62405   1
   7  -1  -6 7.36113 3.52284   2
   7  -1  -6 12.1635 3.53097   4
  -7   1   6 6.53247 2.66393   1
  -7   1   6 9.24207 2.78152   5
   6  -1  -6 45.7724 6.00708   2
  -6   1   6 48.0373 5.05670   1
  -6   1   6 56.7793 5.38166   5
   5  -1  -6 2.41015 1.79102   2
   5  -1  -6 -1.3869 1.79443   5
   5  -1  -6 1.55363 1.93304   4
   5  -1  -6 -3.6880 2.71356   1
  -5   1   6 0.01588 2.20309   5
  -5   1   6 -0.6926 1.38938   1
  -5   1   6 0.53738 1.84755   5
   4  -1  -6 2.20023 1.75972   1
   4  -1  -6 -0.3392 1.45110   5
   4  -1  -6 3.43650 1.73102   4
   4  -1  -6 0.81009 1.68288   2
  -4   1   6 1.96381 1.12838   5
  -4   1   6 3.15378 1.63883   5
  -4   1   6 1.25113 1.14971   1
   3  -1  -6 120.479 4.83928   1
   3  -1  -6 119.076 4.12590   3
   3  -1  -6 121.887 4.96397   5
   3  -1  -6 117.820 6.20260   4
  -3   1   6 117.987 5.45753   5
  -3   1   6 119.666 5.28711   5
  -3   1   6 105.209 5.09975   1
  -3   1   6 117.514 4.13948   3
  -3   1   6 124.056 6.60401   4
  -3   1   6 116.536 6.27316   2
   2  -1  -6 69.4300 2.93943   1
   2  -1  -6 72.9883 3.41437   3
   2  -1  -6 72.5640 3.53199   5
   2  -1  -6 69.5830 3.42678   5
   2  -1  -6 73.9400 4.63939   4
  -2   1   6 70.5725 3.80785   5
  -2   1   6 71.7795 2.87299   1
  -2   1   6 73.1959 3.85595   5
  -2   1   6 70.5922 4.55785   2
  -2   1   6 71.3506 3.35133   3
  -2   1   6 66.0872 4.63269   4
   1  -1  -6 4.25461 1.20676   3
   1  -1  -6 4.84215 1.34773   4
   1  -1  -6 7.05943 1.69703   5
   1  -1  -6 6.82879 1.64552   5
  -1   1   6 2.70523 1.12700   2
  -1   1   6 4.56046 1.29650   4
  -1   1   6 7.74592 2.17139   2
  -1   1   6 3.45642 1.12384   5
  -1   1   6 6.28054 1.50208   5
  -1   1   6 4.84269 1.28578   3
   0  -1  -6 23.2069 2.35580   3
   0  -1  -6 24.7078 2.72636   4
   0  -1  -6 24.3887 2.15268   5
   0  -1  -6 25.3308 1.88163   5
   0   1   6 25.1402 2.43045   3
   0   1   6 24.3547 2.52601   4
   0   1   6 23.5858 2.61422   2
   0   1   6 20.5237 1.97600   5
   0   1   6 21.2831 2.25424   5
  -1  -1  -6 7.77362 1.99852   2
  -1  -1  -6 5.68684 1.32484   5
  -1  -1  -6 5.66828 1.94321   4
  -1  -1  -6 3.36250 1.20736   3
   1   1   6 6.32616 2.01837   3
   1   1   6 3.55457 1.18732   2
   1   1   6 5.84863 1.70231   5
   1   1   6 4.62086 1.36249   4
   1   1   6 7.36044 1.74328   5
  -2  -1  -6 25.7546 2.53902   5
  -2  -1  -6 27.7699 1.73677   1
  -2  -1  -6 27.8821 2.72216   3
  -2  -1  -6 24.6447 2.28882   5
  -2  -1  -6 24.6438 2.90515   2
  -2  -1  -6 22.9641 2.55914   4
   2   1   6 23.9832 1.73196   1
   2   1   6 28.6974 2.70586   3
   2   1   6 24.8251 2.54351   5
   2   1   6 24.4555 2.73094   4
   2   1   6 27.1060 2.81082   2
   2   1   6 27.1881 2.58864   5
  -3  -1  -6 8.45229 3.01949   2
  -3  -1  -6 9.79728 2.19721   5
  -3  -1  -6 9.14472 2.40148   3
  -3  -1  -6 8.95505 2.48079   5
   3   1   6 9.57201 2.36133   2
   3   1   6 8.12509 2.47830   5
   3   1   6 12.5220 2.57126   3
   3   1   6 9.26252 1.86935   1
   3   1   6 5.96633 1.62925   4
   3   1   6 9.10002 2.38453   5
  -4  -1  -6 22.4108 2.88740   5
  -4  -1  -6 18.6123 3.05144   3
  -4  -1  -6 17.2201 3.63709   2
  -4  -1  -6 16.0478 3.47737   5
  -4  -1  -6 18.4201 2.48429   1
   4   1   6 15.7453 3.53177   3
   4   1   6 19.1440 3.56900   5
   4   1   6 18.6234 3.11766   2
   4   1   6 18.3935 3.23311   4
   4   1   6 17.9343 2.81007   4
   4   1   6 16.1674 2.84134   1
   4   1   6 19.5596 3.22356   5
  -5  -1  -6 90.8765 4.96236   1
  -5  -1  -6 73.1527 6.27664   5
  -5  -1  -6 92.7055 5.87413   3
  -5  -1  -6 91.8218 5.46573   5
   5   1   6 91.6154 5.50427   1
   5   1   6 92.1910 5.87718   2
   5   1   6 91.6752 5.67984   5
   5   1   6 89.6877 5.03532   4
   5   1   6 96.0716 5.30772   4
   5   1   6 95.1674 6.06614   5
  -6  -1  -6 12.8429 3.60549   3
  -6  -1  -6 19.3736 3.86928   1
  -6  -1  -6 11.5253 2.52776   5
   6   1   6 16.0876 4.52898   4
   6   1   6 6.46760 3.16945   5
   6   1   6 11.5933 2.76587   2
   6   1   6 13.4717 3.41877   4
   6   1   6 9.76825 2.49537   5
  -7  -1  -6 94.3008 6.99860   5
  -7  -1  -6 97.4636 6.79731   1
  -7  -1  -6 100.848 6.89181   3
   7   1   6 104.177 7.44745   2
   7   1   6 100.501 7.34485   4
   7   1   6 95.8407 5.90753   4
   7   1   6 91.4626 7.44528   5
  -8  -1  -6 10.1361 3.67399   3
  -8  -1  -6 3.05755 2.87562   1
  -8  -1  -6 1.12595 2.97553   5
   8   1   6 7.25279 2.75837   4
   8   1   6 7.56106 3.60958   5
   8   1   6 8.28588 3.69127   2
  -9  -1  -6 12.2274 4.72565   5
  -9  -1  -6 4.23989 4.03081   3
  -9  -1  -6 14.6408 4.21944   1
   9   1   6 10.2724 5.42136   4
   8  -2  -6 5.83105 4.14317   4
  -8   2   6 -2.7321 3.58205   1
  -8   2   6 3.68095 3.43857   5
   7  -2  -6 24.2817 4.75462   2
  -7   2   6 25.9831 5.96793   5
  -7   2   6 35.9304 5.93914   1
   6  -2  -6 5.55578 2.59596   2
   6  -2  -6 7.34857 3.00089   4
  -6   2   6 8.59008 2.64775   1
  -6   2   6 6.70324 2.29839   5
   5  -2  -6 -2.3660 2.63287   1
   5  -2  -6 2.53363 2.07360   4
   5  -2  -6 0.30034 1.76370   5
   5  -2  -6 2.44547 2.11584   2
  -5   2   6 4.21862 2.09083   5
  -5   2   6 4.25372 1.80735   5
  -5   2   6 4.28319 1.81755   1
   4  -2  -6 0.65118 1.35893   2
   4  -2  -6 0.22798 1.27651   5
   4  -2  -6 0.40147 1.70267   4
   4  -2  -6 1.20572 1.66664   1
  -4   2   6 0.19401 1.68057   5
  -4   2   6 0.16441 1.26447   5
  -4   2   6 -0.1862 1.04651   1
   3  -2  -6 -0.8598 1.02665   5
   3  -2  -6 0.32994 1.18267   1
   3  -2  -6 0.67743 1.33683   4
   3  -2  -6 1.08879 0.88490   3
  -3   2   6 -0.1283 1.10418   5
  -3   2   6 0.12030 0.84150   1
  -3   2   6 0.54378 0.83732   3
  -3   2   6 1.52593 1.05606   5
  -3   2   6 -0.0431 1.80313   4
   2  -2  -6 49.8805 2.54045   5
   2  -2  -6 52.1527 4.06720   4
   2  -2  -6 52.8539 2.73384   5
   2  -2  -6 56.6654 2.83842   3
  -2   2   6 53.1666 3.03984   5
  -2   2   6 53.7049 3.14195   5
  -2   2   6 45.8872 4.06663   2
  -2   2   6 53.9861 3.99475   4
  -2   2   6 55.3133 2.56585   1
  -2   2   6 55.1712 2.93783   3
   1  -2  -6 19.6852 2.07533   3
   1  -2  -6 20.5792 1.83122   5
   1  -2  -6 16.5730 2.44900   4
   1  -2  -6 19.7114 1.61216   5
  -1   2   6 15.4752 1.84514   5
  -1   2   6 16.2007 2.56976   2
  -1   2   6 14.7018 2.87350   4
  -1   2   6 17.7619 1.81676   5
  -1   2   6 16.1012 2.25228   3
   0  -2  -6 292.717 8.38157   5
   0  -2  -6 283.747 9.90893   4
   0  -2  -6 286.217 9.31900   3
   0  -2  -6 289.879 8.33379   5
   0   2   6 291.349 9.82575   4
   0   2   6 298.390 9.41688   3
   0   2   6 302.626 8.78403   5
   0   2   6 298.438 10.0489   2
   0   2   6 287.874 8.90961   5
  -1  -2  -6 10.5666 1.98819   4
  -1  -2  -6 11.7801 1.78542   5
  -1  -2  -6 13.5189 2.21203   3
  -1  -2  -6 14.5381 1.62130   5
   1   2   6 11.6499 2.11109   2
   1   2   6 14.7584 2.36381   3
   1   2   6 12.2220 1.85932   5
   1   2   6 18.5008 2.18868   4
   1   2   6 13.8720 1.95544   5
  -2  -2  -6 8.11769 2.50374   2
  -2  -2  -6 6.55257 2.04281   5
  -2  -2  -6 6.36450 1.21620   1
  -2  -2  -6 10.2528 2.24431   3
  -2  -2  -6 9.26507 1.57788   5
   2   2   6 9.60993 1.84252   5
   2   2   6 8.50962 2.11615   4
   2   2   6 5.19238 1.16238   5
   2   2   6 8.74513 1.35812   1
   2   2   6 8.73524 2.26831   2
   2   2   6 11.2686 2.36168   3
  -3  -2  -6 25.7626 3.28499   2
  -3  -2  -6 24.4920 2.58904   5
  -3  -2  -6 22.2842 2.74234   3
  -3  -2  -6 21.6993 2.70402   5
   3   2   6 21.9388 2.52292   5
   3   2   6 22.0083 2.96363   4
   3   2   6 24.8676 2.19878   1
   3   2   6 23.9702 3.12734   3
   3   2   6 24.4566 2.94933   2
   3   2   6 18.0870 2.84216   5
  -4  -2  -6 9.51248 2.95159   5
  -4  -2  -6 3.65482 1.15620   1
  -4  -2  -6 2.60914 1.36126   5
  -4  -2  -6 2.81972 1.48717   3
  -4  -2  -6 -0.7261 1.77177   2
   4   2   6 3.09900 1.47573   1
   4   2   6 1.87988 1.13381   2
   4   2   6 1.03135 1.12708   4
   4   2   6 6.22243 1.99056   3
   4   2   6 4.75561 1.81598   5
   4   2   6 4.21167 1.55940   5
   4   2   6 5.45708 1.70592   4
  -5  -2  -6 97.4058 6.31184   5
  -5  -2  -6 98.9464 5.77996   3
  -5  -2  -6 95.6566 5.22965   1
  -5  -2  -6 99.5116 5.66723   5
   5   2   6 97.3410 5.63984   1
   5   2   6 98.0314 5.85570   4
   5   2   6 99.3802 5.89814   5
   5   2   6 92.4937 5.52343   5
   5   2   6 98.2158 6.08828   2
   5   2   6 94.6100 5.52717   4
  -6  -2  -6 53.8789 5.10609   3
  -6  -2  -6 44.2434 4.53940   1
   6   2   6 50.7940 6.17524   5
   6   2   6 48.7801 4.53337   4
   6   2   6 46.3157 4.98482   5
   6   2   6 50.7536 5.66621   4
   6   2   6 48.3697 5.48078   2
  -7  -2  -6 11.1236 2.79749   5
  -7  -2  -6 18.3582 4.92350   3
  -7  -2  -6 15.2409 4.38639   1
   7   2   6 13.7067 3.93232   4
   7   2   6 9.31579 2.79626   5
   7   2   6 13.6405 3.30871   2
  -8  -2  -6 27.4962 5.63790   1
  -8  -2  -6 19.5651 3.90747   3
  -8  -2  -6 27.3156 7.00099   5
   8   2   6 26.7184 6.43990   5
   8   2   6 30.1838 6.33821   2
   8   2   6 23.8427 5.19461   4
  -9  -2  -6 -4.3250 3.64719   3
   9   2   6 -4.8944 3.74852   2
   8  -3  -6 18.8608 4.99536   2
   8  -3  -6 23.9060 5.03259   4
  -8   3   6 18.5384 4.03150   5
  -8   3   6 16.4311 4.16206   1
   7  -3  -6 2.37706 3.14316   4
  -7   3   6 2.12460 2.80806   1
  -7   3   6 2.36873 2.54522   5
   6  -3  -6 405.645 15.8883   2
   6  -3  -6 419.379 15.2616   4
  -6   3   6 404.944 14.1177   1
  -6   3   6 374.872 13.7466   5
   5  -3  -6 120.513 7.72851   2
   5  -3  -6 112.846 6.94261   4
  -5   3   6 115.480 6.58752   5
  -5   3   6 110.511 6.08921   1
  -5   3   6 117.742 6.09661   5
   4  -3  -6 203.866 9.36048   2
   4  -3  -6 204.707 9.04035   4
  -4   3   6 203.572 7.83577   5
  -4   3   6 216.555 7.84614   1
  -4   3   6 202.705 7.72129   5
   3  -3  -6 4.22140 1.51903   4
  -3   3   6 6.50615 2.79919   4
  -3   3   6 6.72668 2.07360   1
  -3   3   6 6.93131 2.27206   5
  -3   3   6 8.25179 1.73037   3
  -3   3   6 8.17327 2.09546   5
   2  -3  -6 167.844 7.35349   4
   2  -3  -6 163.449 5.77947   3
  -2   3   6 161.352 5.87145   5
  -2   3   6 175.430 5.65067   1
  -2   3   6 168.333 5.85664   5
  -2   3   6 173.891 7.53321   4
  -2   3   6 163.523 7.32174   2
  -2   3   6 174.334 5.97030   3
   1  -3  -6 12.8619 2.61732   4
   1  -3  -6 7.77952 1.91934   3
  -1   3   6 12.9516 1.24443   1
  -1   3   6 9.64552 2.21803   3
  -1   3   6 7.19381 2.59100   2
  -1   3   6 11.1371 1.60464   5
  -1   3   6 10.2593 1.30918   1
  -1   3   6 10.0214 1.62073   5
  -1   3   6 7.93159 2.68236   4
   0  -3  -6 354.969 11.8405   4
   0  -3  -6 362.076 9.55787   5
   0  -3  -6 358.775 11.1834   3
   0  -3  -6 364.678 9.54524   5
   0   3   6 370.666 11.2726   3
   0   3   6 355.066 11.7543   4
   0   3   6 374.754 11.9728   2
   0   3   6 366.900 10.4918   5
   0   3   6 368.086 10.3572   5
  -1  -3  -6 409.763 12.7954   3
  -1  -3  -6 420.762 11.2971   5
  -1  -3  -6 410.319 10.8199   1
  -1  -3  -6 422.900 11.2523   5
  -1  -3  -6 416.207 13.2799   4
   1   3   6 410.418 11.6860   5
   1   3   6 419.513 12.7961   3
   1   3   6 425.173 10.8521   1
   1   3   6 414.780 11.9520   5
   1   3   6 424.368 13.1380   4
   1   3   6 424.117 13.2166   2
  -2  -3  -6 6.58872 1.26737   1
  -2  -3  -6 6.22641 2.15225   2
  -2  -3  -6 5.62769 1.54758   5
  -2  -3  -6 5.51618 1.75584   5
  -2  -3  -6 7.49225 2.23233   3
   2   3   6 4.66298 1.56816   3
   2   3   6 4.14106 1.24318   5
   2   3   6 6.61182 2.35233   4
   2   3   6 6.74407 1.48599   1
   2   3   6 3.72967 1.02675   5
   2   3   6 6.05235 2.03155   2
  -3  -3  -6 27.3310 2.58677   1
  -3  -3  -6 31.5605 3.20751   2
  -3  -3  -6 30.2543 3.19538   3
  -3  -3  -6 31.1256 2.67763   5
  -3  -3  -6 29.7602 2.61155   5
   3   3   6 25.0077 3.43612   4
   3   3   6 27.3839 2.94821   5
   3   3   6 33.7027 3.41135   3
   3   3   6 26.6671 3.07022   2
   3   3   6 32.1393 2.57909   1
  -4  -3  -6 104.694 5.15645   5
  -4  -3  -6 102.471 6.20264   2
  -4  -3  -6 110.625 5.88818   3
  -4  -3  -6 112.407 5.17799   5
  -4  -3  -6 105.418 4.84360   1
   4   3   6 108.862 5.70577   4
   4   3   6 110.740 5.53504   5
   4   3   6 117.247 5.86583   4
   4   3   6 107.957 5.04012   1
   4   3   6 98.4175 5.93645   3
   4   3   6 111.740 5.51070   5
   4   3   6 111.921 6.03403   2
  -5  -3  -6 59.1945 4.53492   5
  -5  -3  -6 60.5806 4.86983   3
  -5  -3  -6 57.3779 3.95441   1
   5   3   6 54.6994 4.82548   4
   5   3   6 63.9263 5.54661   5
   5   3   6 57.7474 4.77980   1
   5   3   6 57.8666 4.70076   2
   5   3   6 62.6835 4.88869   5
   5   3   6 46.9190 5.15314   4
  -6  -3  -6 195.964 8.97184   3
  -6  -3  -6 204.478 8.58233   1
  -6  -3  -6 201.685 8.77884   5
   6   3   6 198.221 9.06477   5
   6   3   6 196.374 9.85060   5
   6   3   6 201.436 9.48874   2
   6   3   6 198.144 8.85675   4
  -7  -3  -6 14.1919 4.48278   3
  -7  -3  -6 15.6903 4.32767   1
   7   3   6 15.7776 4.00896   4
   7   3   6 17.5512 5.11999   2
   7   3   6 36.7996 8.33998   5
   7   3   6 16.1875 5.42347   5
  -8  -3  -6 6.75012 3.44366   5
  -8  -3  -6 -2.7927 2.95215   3
  -8  -3  -6 -0.4193 2.60968   1
   8   3   6 1.10438 2.84342   5
   8   3   6 4.84190 2.97135   2
   8   3   6 4.65934 2.81417   4
  -9  -3  -6 13.4164 3.70043   1
   9   3   6 23.9525 6.81058   4
   9   3   6 12.4421 4.64488   2
   9   3   6 35.5391 9.34711   5
   7  -4  -6 44.1302 7.46993   2
   7  -4  -6 40.4375 7.23813   4
  -7   4   6 48.3640 6.97896   1
  -7   4   6 38.1268 6.08132   5
   6  -4  -6 35.9736 5.83703   4
   6  -4  -6 37.7573 6.24583   2
  -6   4   6 26.8261 4.26021   5
  -6   4   6 37.0993 5.75139   1
   5  -4  -6 17.9183 4.27589   4
   5  -4  -6 9.17126 2.80045   2
  -5   4   6 6.27114 1.65834   5
  -5   4   6 9.01197 2.13140   1
  -5   4   6 8.48906 2.51309   5
   4  -4  -6 0.40220 1.73977   2
   4  -4  -6 -0.2504 1.56021   4
  -4   4   6 1.79852 1.47742   1
  -4   4   6 -0.3578 1.28404   5
  -4   4   6 -0.5196 1.20896   5
   3  -4  -6 0.08197 1.33780   4
  -3   4   6 0.48542 1.09801   5
  -3   4   6 0.75169 1.00963   5
  -3   4   6 1.73652 1.12654   1
  -3   4   6 0.39177 1.23667   3
   2  -4  -6 18.9248 3.07333   4
   2  -4  -6 21.4253 2.46928   3
  -2   4   6 19.4096 2.10400   1
  -2   4   6 15.4013 2.09206   5
  -2   4   6 17.3790 1.86239   5
  -2   4   6 21.6499 2.17443   1
  -2   4   6 16.6452 2.46933   3
  -2   4   6 16.8687 3.71143   4
   1  -4  -6 19.8832 2.91434   4
   1  -4  -6 16.5403 2.33703   3
  -1   4   6 18.4045 1.83418   5
  -1   4   6 15.8392 1.63391   5
  -1   4   6 20.1522 2.55720   3
  -1   4   6 22.1323 2.89194   2
  -1   4   6 15.0715 1.70633   1
  -1   4   6 20.4744 1.89083   1
  -1   4   6 11.5236 3.12841   4
   0  -4  -6 4.77021 1.61675   3
   0  -4  -6 3.69616 1.36597   4
   0   4   6 6.15248 1.23195   1
   0   4   6 7.36514 2.42008   3
   0   4   6 7.95959 1.32779   5
   0   4   6 8.28005 2.28784   4
   0   4   6 7.46203 2.27899   2
   0   4   6 5.27649 1.35477   5
   0   4   6 7.06380 2.38500   2
  -1  -4  -6 125.484 5.74928   3
  -1  -4  -6 127.635 4.38206   1
   1   4   6 130.412 5.80378   3
   1   4   6 128.912 4.68752   5
   1   4   6 133.431 5.94857   2
   1   4   6 129.243 6.00122   4
   1   4   6 130.714 4.78471   5
   1   4   6 134.370 4.40804   1
  -2  -4  -6 9.30441 2.52181   2
  -2  -4  -6 4.77558 1.55113   3
  -2  -4  -6 8.09064 1.61277   5
  -2  -4  -6 5.64420 1.55229   1
  -2  -4  -6 6.19511 1.48613   5
   2   4   6 8.48471 1.94053   5
   2   4   6 3.93625 1.10410   1
   2   4   6 2.77683 1.33111   4
   2   4   6 7.79645 2.35694   2
   2   4   6 5.86120 1.76927   3
   2   4   6 6.73074 1.73370   5
  -3  -4  -6 2.00277 1.25891   2
  -3  -4  -6 2.39387 1.48729   3
  -3  -4  -6 1.35980 0.81455   1
  -3  -4  -6 1.17775 0.94601   5
  -3  -4  -6 3.11202 1.06690   5
   3   4   6 1.23071 1.06617   1
   3   4   6 3.57908 1.67814   3
   3   4   6 -1.4960 1.48868   4
   3   4   6 2.86648 1.36806   2
   3   4   6 2.28718 1.13018   5
   3   4   6 1.10161 1.17813   4
   3   4   6 1.28692 1.09074   5
  -4  -4  -6 23.9479 2.77536   1
  -4  -4  -6 21.2468 3.41626   3
  -4  -4  -6 18.7763 2.83415   5
  -4  -4  -6 26.9802 4.12725   2
   4   4   6 21.3835 3.38112   5
   4   4   6 20.2636 3.08664   5
   4   4   6 21.1986 3.92405   4
   4   4   6 18.2706 3.30604   4
   4   4   6 19.5465 3.23494   2
   4   4   6 18.8799 3.20943   1
  -5  -4  -6 115.589 5.73822   1
  -5  -4  -6 113.476 6.48008   3
  -5  -4  -6 112.967 5.89883   5
   5   4   6 116.462 6.62588   4
   5   4   6 101.316 6.15132   5
   5   4   6 114.448 6.35923   5
   5   4   6 117.207 6.17431   1
   5   4   6 110.945 6.49336   2
  -6  -4  -6 35.0537 4.80340   5
  -6  -4  -6 42.0373 5.05071   3
  -6  -4  -6 38.6755 4.29309   1
   6   4   6 34.4713 6.29540   5
   6   4   6 39.5670 5.04884   2
   6   4   6 41.9955 4.91805   5
   6   4   6 37.3290 4.68156   4
  -7  -4  -6 60.6089 6.30858   3
  -7  -4  -6 61.8311 5.87671   5
  -7  -4  -6 56.7967 5.45332   1
   7   4   6 55.7436 5.90492   4
   7   4   6 66.4571 6.96218   2
   7   4   6 63.4858 8.76947   5
   7   4   6 53.2977 6.03347   5
  -8  -4  -6 19.8129 6.69079   3
  -8  -4  -6 8.86013 2.97288   1
   8   4   6 9.99274 3.84569   5
   8   4   6 3.18645 2.70969   4
   8   4   6 5.68016 3.26447   2
  -9  -4  -6 -1.4741 4.69497   3
  -9  -4  -6 7.07415 3.69067   1
   9   4   6 3.28091 4.06154   2
   9   4   6 -5.0441 3.27230   4
   9   4   6 0.12239 4.17439   5
   7  -5  -6 2.77883 3.45724   2
   7  -5  -6 2.39808 3.82845   4
  -7   5   6 1.48003 3.70426   1
   6  -5  -6 5.15400 3.10226   2
   6  -5  -6 9.53500 3.50537   4
  -6   5   6 6.64928 2.57138   1
  -6   5   6 8.74943 2.53103   5
   5  -5  -6 17.1931 5.12254   2
   5  -5  -6 27.7824 5.34393   4
  -5   5   6 28.6745 4.41602   1
  -5   5   6 24.6516 4.29383   5
  -5   5   6 23.4013 3.56952   5
   4  -5  -6 101.723 7.09410   2
   4  -5  -6 101.115 6.40759   4
  -4   5   6 100.662 5.65487   1
  -4   5   6 92.2072 4.64832   5
  -4   5   6 97.2092 4.88169   5
   3  -5  -6 52.4188 4.60328   4
  -3   5   6 57.0922 3.72030   1
  -3   5   6 55.4517 3.54980   3
  -3   5   6 52.6519 3.11613   5
  -3   5   6 59.1345 4.20302   1
   2  -5  -6 852.022 24.1639   4
  -2   5   6 804.866 21.5082   5
  -2   5   6 813.867 22.2791   1
  -2   5   6 796.137 23.9017   4
  -2   5   6 831.181 21.6141   5
  -2   5   6 868.792 22.4464   1
  -2   5   6 844.238 22.4042   3
   1  -5  -6 6.93165 1.94601   4
   1  -5  -6 9.32617 2.34452   3
  -1   5   6 6.91504 1.99710   3
  -1   5   6 9.18266 1.52707   5
  -1   5   6 7.63384 1.41563   5
  -1   5   6 7.70196 1.83790   1
  -1   5   6 8.94286 1.92239   1
  -1   5   6 7.96743 2.19082   4
  -1   5   6 11.7823 3.17384   2
   0  -5  -6 266.237 9.34760   3
   0  -5  -6 271.979 10.1588   4
   0   5   6 248.902 9.69055   4
   0   5   6 275.328 9.44411   3
   0   5   6 268.758 8.14255   1
   0   5   6 279.015 7.69022   5
   0   5   6 266.324 7.78760   5
   0   5   6 272.152 9.88023   2
   0   5   6 264.114 9.74610   2
  -1  -5  -6 9.70694 2.74783   3
  -1  -5  -6 9.49890 2.06632   1
   1   5   6 11.1464 3.06526   3
   1   5   6 8.38649 1.69035   5
   1   5   6 11.3851 2.64991   4
   1   5   6 10.9047 1.75047   1
   1   5   6 11.2270 2.49381   2
   1   5   6 7.92002 1.59951   5
  -2  -5  -6 107.338 4.41268   1
  -2  -5  -6 112.786 5.66548   3
   2   5   6 118.012 4.61973   1
   2   5   6 102.919 5.77748   4
   2   5   6 106.718 4.55864   5
   2   5   6 109.378 5.78956   3
   2   5   6 115.860 5.62887   2
   2   5   6 110.726 4.54341   5
  -3  -5  -6 199.691 6.58490   5
  -3  -5  -6 200.629 7.17507   1
  -3  -5  -6 202.300 8.44911   3
  -3  -5  -6 184.486 8.13939   2
  -3  -5  -6 197.302 6.51663   5
   3   5   6 201.285 7.29485   5
   3   5   6 206.485 7.42872   5
   3   5   6 200.657 7.26765   1
   3   5   6 229.108 10.2881   3
   3   5   6 204.403 8.58514   4
   3   5   6 212.302 8.32261   4
   3   5   6 213.200 8.35412   2
  -4  -5  -6 4.70146 1.39188   1
  -4  -5  -6 5.62241 2.37298   2
  -4  -5  -6 5.39710 1.42962   5
  -4  -5  -6 5.20149 2.13531   3
   4   5   6 5.13848 1.83212   1
   4   5   6 9.20087 3.13834   2
   4   5   6 5.94673 1.56550   5
   4   5   6 10.1349 3.50818   4
   4   5   6 3.51408 1.42270   5
  -5  -5  -6 3.76969 1.75828   5
  -5  -5  -6 2.86831 1.98356   3
  -5  -5  -6 3.70824 1.57773   1
   5   5   6 3.24024 3.93344   1
   5   5   6 3.40063 1.69503   4
   5   5   6 3.93232 1.85911   5
   5   5   6 4.31633 1.89406   5
   5   5   6 1.94452 1.91517   2
  -6  -5  -6 1.15874 2.02866   5
  -6  -5  -6 0.32626 2.17027   3
  -6  -5  -6 1.71513 1.87008   1
   6   5   6 -2.8338 2.77582   5
   6   5   6 0.17621 1.86303   2
   6   5   6 -0.4621 1.67374   5
   6   5   6 -0.7006 1.98296   4
  -7  -5  -6 24.1121 6.08117   5
  -7  -5  -6 28.8668 4.95175   1
  -7  -5  -6 26.8096 5.66660   3
   7   5   6 23.9055 5.49573   4
   7   5   6 34.9565 6.03362   2
   7   5   6 30.9457 5.81428   5
  -8  -5  -6 -6.3731 3.33601   3
  -8  -5  -6 2.48276 2.91515   1
   8   5   6 -2.8712 3.10051   5
   8   5   6 0.66183 3.12231   2
   8   5   6 3.13844 2.86643   4
  -9  -5  -6 55.8773 8.79915   3
  -9  -5  -6 55.7299 8.20765   1
   9   5   6 78.3832 10.5286   5
   9   5   6 55.8075 9.24996   4
   9   5   6 56.6191 10.1036   2
   7  -6  -6 57.7410 9.52651   2
   7  -6  -6 51.4461 8.89395   4
  -7   6   6 73.4813 6.89466   5
  -7   6   6 85.7011 9.43492   1
   6  -6  -6 -3.0049 3.00187   2
   6  -6  -6 1.38497 2.99618   4
  -6   6   6 -4.0917 2.48360   1
  -6   6   6 1.71365 2.06498   5
   5  -6  -6 29.1816 5.60664   4
   5  -6  -6 45.1911 6.04918   2
  -5   6   6 31.2496 4.77084   1
  -5   6   6 41.4391 4.87517   5
  -5   6   6 33.9836 3.72562   5
   4  -6  -6 23.6555 5.00976   4
  -4   6   6 19.3916 2.88116   5
  -4   6   6 15.6568 3.21995   5
  -4   6   6 15.3316 3.50757   1
  -4   6   6 15.2298 2.46245   3
  -4   6   6 16.8078 3.19376   3
   3  -6  -6 39.1639 4.46279   4
  -3   6   6 44.4217 2.97501   5
  -3   6   6 42.1818 2.85705   5
  -3   6   6 42.7079 3.14399   3
  -3   6   6 41.1598 3.93359   3
  -3   6   6 39.0063 4.66669   1
  -3   6   6 45.7794 3.99141   1
   2  -6  -6 389.394 13.3457   4
  -2   6   6 372.026 10.4406   5
  -2   6   6 386.323 12.1557   3
  -2   6   6 367.586 11.8343   1
  -2   6   6 380.416 10.5201   5
  -2   6   6 377.729 11.9779   1
   1  -6  -6 0.02860 1.50553   4
  -1   6   6 -0.1977 1.95104   3
  -1   6   6 -0.8638 0.92316   1
  -1   6   6 0.28416 0.60894   5
  -1   6   6 0.95450 0.67853   5
  -1   6   6 0.64500 1.17519   1
   0  -6  -6 193.993 7.91256   3
   0   6   6 199.685 5.89796   5
   0   6   6 179.215 8.28113   2
   0   6   6 206.351 6.02574   5
   0   6   6 196.571 8.50739   4
   0   6   6 211.103 8.47774   2
   0   6   6 208.701 7.17819   1
   0   6   6 209.441 8.30835   3
  -1  -6  -6 4.14943 1.78511   3
  -1  -6  -6 3.49326 1.20661   1
   1   6   6 2.24551 2.19083   3
   1   6   6 2.63085 0.85389   5
   1   6   6 1.35179 1.59069   2
   1   6   6 3.12345 1.26969   1
   1   6   6 1.08653 1.70985   4
   1   6   6 3.26018 1.37795   2
   1   6   6 5.04373 1.65838   5
  -2  -6  -6 19.0108 2.35114   1
  -2  -6  -6 16.2124 3.00502   3
   2   6   6 19.5234 2.32860   5
   2   6   6 23.1725 3.09220   2
   2   6   6 19.7287 2.24495   5
   2   6   6 26.0837 2.85122   1
  -3  -6  -6 1.51042 1.72512   3
  -3  -6  -6 3.13312 1.83798   2
  -3  -6  -6 2.67405 1.04420   5
  -3  -6  -6 2.61557 1.20642   1
   3   6   6 0.84521 1.49833   1
   3   6   6 1.73677 1.32085   2
   3   6   6 2.63501 1.34299   5
   3   6   6 3.19519 1.36651   5
   3   6   6 0.88098 1.40115   4
  -4  -6  -6 117.646 6.80581   3
  -4  -6  -6 125.951 5.24404   5
  -4  -6  -6 118.074 5.76817   1
   4   6   6 118.707 6.18169   1
   4   6   6 122.920 5.84281   5
   4   6   6 119.994 6.45959   2
   4   6   6 124.135 6.02691   5
   4   6   6 122.500 6.97583   4
  -5  -6  -6 14.9970 4.27876   3
  -5  -6  -6 11.6476 3.50870   1
  -5  -6  -6 19.3032 3.92747   5
   5   6   6 12.1858 3.93742   2
   5   6   6 17.3259 4.19388   5
   5   6   6 19.4612 3.78659   5
   5   6   6 18.1658 4.65518   4
  -6  -6  -6 9.95442 3.13321   3
  -6  -6  -6 14.4598 4.06355   1
  -6  -6  -6 15.1260 4.55852   5
   6   6   6 6.78379 3.31226   5
   6   6   6 5.23727 2.34496   2
   6   6   6 8.10311 2.16098   5
   6   6   6 14.4877 5.07521   4
  -7  -6  -6 5.84516 3.37392   3
  -7  -6  -6 18.7899 5.21579   1
   7   6   6 5.25609 2.85642   2
   7   6   6 5.03809 2.87739   5
   7   6   6 1.72102 2.75269   4
  -8  -6  -6 13.5416 3.57081   1
  -8  -6  -6 13.2196 4.06136   3
   8   6   6 21.5067 6.55341   4
   8   6   6 14.8863 3.69765   2
   8   6   6 12.7051 3.97944   5
  -9  -6  -6 -4.4026 4.21622   3
  -9  -6  -6 -0.1261 3.31000   1
   9   6   6 -2.3298 4.54578   2
   9   6   6 0.95067 4.16821   4
   9   6   6 -5.9375 3.34460   5
   6  -7  -6 1.78761 3.31760   2
   6  -7  -6 -0.6755 3.30520   4
  -6   7   6 0.19281 2.86903   1
   5  -7  -6 16.9204 5.72096   4
  -5   7   6 22.0637 5.27089   1
  -5   7   6 24.1173 5.24655   5
  -5   7   6 26.9897 3.67784   5
   4  -7  -6 2.70875 2.47945   4
  -4   7   6 1.85778 1.60817   3
  -4   7   6 -0.3424 1.54949   5
  -4   7   6 0.64800 1.96572   1
  -4   7   6 0.06150 1.26214   5
   3  -7  -6 1.30390 1.85552   4
  -3   7   6 1.84033 1.01363   5
  -3   7   6 0.31079 1.16266   5
  -3   7   6 2.53328 1.77451   1
  -3   7   6 2.10651 1.61833   3
  -3   7   6 1.41093 2.57346   3
  -2   7   6 34.6622 4.52519   1
  -2   7   6 36.1593 3.85877   1
  -2   7   6 31.9013 4.58312   3
  -2   7   6 35.9752 2.17366   5
  -1   7   6 24.8166 3.76621   1
  -1   7   6 33.6557 3.37573   1
  -1   7   6 25.3456 4.70752   3
   0  -7  -6 -1.1276 1.63406   3
   0   7   6 3.24256 1.65032   2
   0   7   6 -0.3819 1.48389   1
   0   7   6 -0.0315 0.61307   5
   0   7   6 -3.7542 2.30742   3
  -1  -7  -6 -0.7141 1.13195   1
  -1  -7  -6 -0.1622 1.62746   3
   1   7   6 0.92534 0.76412   5
   1   7   6 1.26297 1.37314   1
   1   7   6 2.02952 1.36046   2
   1   7   6 3.39375 1.75836   2
  -2  -7  -6 47.5956 3.61663   1
  -2  -7  -6 51.1967 4.47469   3
   2   7   6 56.6901 3.28024   5
   2   7   6 56.0732 4.28838   2
   2   7   6 58.9455 4.95505   4
   2   7   6 51.1114 3.97922   1
   2   7   6 49.2685 3.09246   5
  -3  -7  -6 15.5229 2.92417   1
  -3  -7  -6 11.9874 2.69511   3
   3   7   6 21.1477 3.58099   1
   3   7   6 16.3743 2.61610   5
   3   7   6 11.2093 3.12001   2
   3   7   6 14.1824 2.64368   5
   3   7   6 15.4195 3.90563   4
  -4  -7  -6 16.0512 2.80019   5
  -4  -7  -6 13.7555 3.81229   3
  -4  -7  -6 16.4673 2.98233   1
   4   7   6 14.9124 3.04479   5
   4   7   6 19.4387 3.64543   2
   4   7   6 12.5285 4.00102   4
   4   7   6 21.4230 3.29049   5
  -5  -7  -6 -1.8469 2.14134   3
  -5  -7  -6 2.77911 1.96976   5
  -5  -7  -6 -1.5241 1.53597   1
   5   7   6 -1.1271 1.77940   2
   5   7   6 -2.8295 1.87390   4
   5   7   6 0.29301 2.34677   5
   5   7   6 -0.8420 1.66438   5
  -6  -7  -6 12.5693 4.29081   1
  -6  -7  -6 16.3347 5.02388   3
  -6  -7  -6 13.9759 4.09398   5
   6   7   6 18.3125 4.35278   5
   6   7   6 21.9856 5.69826   4
   6   7   6 12.6468 3.53120   5
   6   7   6 16.3598 3.07777   2
  -7  -7  -6 0.32272 3.08530   3
  -7  -7  -6 -4.4857 2.39790   1
   7   7   6 1.46235 2.88002   5
   7   7   6 0.45465 2.89838   2
   7   7   6 -0.1407 2.88093   4
  -8  -7  -6 6.56345 3.99364   1
  -8  -7  -6 9.37456 4.56880   3
   8   7   6 -0.5725 3.24162   4
   8   7   6 6.26900 4.27548   5
   8   7   6 5.23007 3.85247   2
  -9  -7  -6 1.59772 5.08257   3
  -9  -7  -6 11.4981 4.91541   1
   9   7   6 -0.4438 4.75829   5
   9   7   6 -4.5827 4.57670   2
   9   7   6 -0.1744 4.31570   4
  -6   8   6 -3.2127 3.51521   1
  -6   8   6 0.66473 2.40288   5
  -5   8   6 0.47768 2.91415   1
  -5   8   6 3.30735 2.00189   5
  -5   8   6 -1.5667 2.91795   5
  -4   8   6 6.41025 1.66852   5
  -4   8   6 16.9488 3.89411   3
  -4   8   6 4.08511 2.30150   1
  -4   8   6 6.34280 1.98131   5
  -3   8   6 7.35264 2.27409   3
  -3   8   6 2.44419 1.37012   5
  -3   8   6 1.38818 1.06567   5
  -3   8   6 3.24407 2.14224   1
  -2   8   6 19.8937 3.47275   3
  -2   8   6 13.3319 2.44496   1
  -1   8   6 10.8549 3.75239   2
  -1   8   6 7.06918 1.84843   1
   0   8   6 -0.6630 1.54390   2
   0   8   6 0.21863 2.05302   1
  -1  -8  -6 13.4127 2.76489   1
   1   8   6 9.89889 2.53363   1
   1   8   6 13.7061 2.10180   5
   1   8   6 21.3696 4.57357   4
   1   8   6 17.8024 2.06313   5
   1   8   6 13.7821 3.24735   2
  -2  -8  -6 4.25863 1.71759   1
  -2  -8  -6 4.50447 2.34970   3
   2   8   6 1.91910 1.50826   2
   2   8   6 4.03026 1.26730   5
   2   8   6 4.98557 2.20756   2
   2   8   6 2.56828 1.24579   5
   2   8   6 2.77785 2.19590   1
   2   8   6 0.64537 1.69867   4
  -3  -8  -6 122.363 7.26042   3
  -3  -8  -6 139.048 6.81448   1
   3   8   6 132.030 5.71810   5
   3   8   6 127.457 6.71230   2
   3   8   6 133.351 5.92586   5
   3   8   6 137.656 7.90634   4
  -4  -8  -6 99.6829 7.01634   3
  -4  -8  -6 97.6149 5.93778   1
   4   8   6 95.3516 5.56088   5
   4   8   6 95.2768 6.10434   2
   4   8   6 88.9556 5.33846   5
   4   8   6 92.6769 7.13453   4
  -5  -8  -6 1.12510 1.80873   1
  -5  -8  -6 0.53640 2.10190   5
  -5  -8  -6 6.37747 2.88209   3
   5   8   6 0.11253 1.82213   5
   5   8   6 2.27789 2.30118   4
   5   8   6 2.08454 2.26648   2
   5   8   6 2.20838 2.67382   5
  -6  -8  -6 0.47168 3.01345   3
  -6  -8  -6 0.92048 2.26948   1
   6   8   6 -3.8996 2.22384   5
   6   8   6 -4.2415 2.35843   2
   6   8   6 1.70428 2.41026   4
  -7  -8  -6 -1.3650 3.23515   3
  -7  -8  -6 3.54930 2.73235   1
   7   8   6 5.26886 3.42023   2
   7   8   6 -1.0718 3.21710   4
   7   8   6 -1.2028 3.02011   5
  -8  -8  -6 11.5479 5.27814   3
  -8  -8  -6 -0.5737 3.43291   1
   8   8   6 3.93222 3.78463   4
   8   8   6 -2.5737 2.99018   5
   8   8   6 3.43053 4.06048   2
  -5   9   6 0.64466 3.39076   1
  -5   9   6 6.20725 2.20488   5
  -4   9   6 4.86029 3.11010   1
  -4   9   6 -1.6859 1.91181   5
  -4   9   6 3.86529 2.72180   3
  -4   9   6 2.20908 1.49779   5
  -3   9   6 2.41484 2.37024   1
  -3   9   6 4.33908 2.55898   3
  -2   9   6 6.05596 2.29637   1
  -2   9   6 7.32951 2.51716   3
  -1   9   6 36.6810 4.39324   1
  -1   9   6 39.6244 5.30374   2
   0   9   6 38.7327 5.60347   4
   0   9   6 31.3860 4.74107   2
   1   9   6 2.60295 1.13614   5
   1   9   6 3.79559 1.17670   5
   1   9   6 3.00980 1.75654   2
   1   9   6 2.84772 2.07649   4
  -2  -9  -6 3.33101 1.86435   1
   2   9   6 2.94248 1.40039   5
   2   9   6 0.04430 1.25080   5
   2   9   6 4.65910 2.60525   4
   2   9   6 2.68097 1.83828   2
  -3  -9  -6 17.1386 3.96840   1
   3   9   6 27.7054 4.33243   2
   3   9   6 15.3403 5.09951   4
   3   9   6 20.0125 3.33889   5
  -4  -9  -6 -1.2415 2.58804   3
  -4  -9  -6 2.00452 2.29053   1
   4   9   6 0.65106 1.80444   5
   4   9   6 4.46022 2.79384   4
   4   9   6 -0.4734 2.21181   5
   4   9   6 2.47907 2.08634   2
  -5  -9  -6 0.70781 2.25564   1
  -5  -9  -6 0.90237 2.88932   3
   5   9   6 -0.1654 2.50022   2
   5   9   6 -2.6874 2.05827   5
   5   9   6 3.12932 2.73879   5
  -6  -9  -6 2.44411 2.55710   1
  -6  -9  -6 4.40587 3.53164   3
   6   9   6 6.27786 3.17754   2
   6   9   6 8.21985 3.72180   4
   6   9   6 2.78628 2.77719   5
  -7  -9  -6 -3.0235 2.95981   1
   7   9   6 -3.7109 3.19371   2
   7   9   6 -2.5939 3.21319   5
  -8  -9  -6 5.78271 4.40161   1
   8   9   6 3.45956 4.32435   4
   8   9   6 7.45094 4.33101   2
  -4  10   6 -1.7644 2.91753   1
  -4  10   6 1.15502 1.68704   5
  -3  10   6 0.97566 2.76836   1
  -3  10   6 6.48980 3.23668   3
  -2  10   6 11.1728 3.49789   3
  -2  10   6 25.8928 7.37564   4
  -2  10   6 17.3882 5.66861   1
  -1  10   6 47.2155 5.31010   1
  -1  10   6 45.3843 6.99493   4
  -1  10   6 51.7837 5.79179   2
  -1  10   6 59.9891 5.84496   3
   0  10   6 3.59356 2.15934   2
   0  10   6 7.46568 2.85543   4
   1  10   6 77.4789 7.43677   4
   1  10   6 65.8323 3.44844   5
   1  10   6 60.6944 3.46965   5
   1  10   6 57.6974 5.22771   2
  -2 -10  -6 6.09850 2.52854   1
   2  10   6 5.25395 1.50455   5
   2  10   6 8.37649 3.21416   4
   2  10   6 10.2417 3.18752   5
   2  10   6 10.8954 3.87524   2
  -3 -10  -6 21.7769 4.29419   1
   3  10   6 25.5963 3.65935   5
   3  10   6 25.4469 4.23130   5
   3  10   6 20.1424 4.39956   2
   3  10   6 29.0623 5.89993   4
  -4 -10  -6 47.2838 5.71842   1
   4  10   6 57.2949 7.16327   4
   4  10   6 55.8476 5.61472   2
   4  10   6 51.3826 5.64425   5
   4  10   6 58.7568 5.22366   5
  -5 -10  -6 96.5487 7.55018   1
   5  10   6 100.794 8.96257   4
   5  10   6 91.8494 7.27027   2
   5  10   6 81.7730 6.17702   5
  -6 -10  -6 19.8377 6.76909   1
   6  10   6 12.2769 3.53471   5
   6  10   6 13.4006 3.72219   2
  -7 -10  -6 37.6995 7.46616   1
   7  10   6 17.0089 5.15755   4
   7  10   6 30.0324 8.41055   2
   7  10   6 16.5688 4.58806   5
  -3  11   6 3.25224 4.07270   4
  -3  11   6 0.13904 3.82441   3
  -3  11   6 3.06740 3.54664   1
  -2  11   6 -2.2347 3.01994   2
  -2  11   6 3.06159 3.42155   3
  -2  11   6 2.29555 3.43127   1
  -2  11   6 3.70926 3.78796   4
  -1  11   6 25.0344 6.59498   2
  -1  11   6 14.8717 3.31098   1
  -1  11   6 14.7705 3.77930   4
  -1  11   6 29.2278 6.23637   3
   0  11   6 18.5981 5.27411   2
   0  11   6 30.1361 7.32967   4
   0  11   6 29.1742 5.83166   3
   1  11   6 15.1266 3.01481   5
   1  11   6 14.5345 4.59949   2
   1  11   6 17.6037 4.35557   4
   1  11   6 20.1775 3.01973   5
  -2 -11  -6 33.2371 5.76850   1
   2  11   6 33.0952 5.51110   2
   2  11   6 36.4503 4.17146   5
   2  11   6 24.0319 6.78153   4
   2  11   6 26.2111 3.77713   5
  -3 -11  -6 2.22390 2.84999   1
   3  11   6 -3.3485 2.17608   5
   3  11   6 -0.1054 2.98959   4
   3  11   6 -2.9903 2.25091   2
   3  11   6 1.67728 2.17335   5
  -4 -11  -6 1.13675 2.96881   1
   4  11   6 1.32423 2.46784   5
   4  11   6 -1.2169 3.08277   4
   4  11   6 -0.1503 2.52948   2
  -5 -11  -6 12.8580 4.21219   1
   5  11   6 26.7525 6.04356   5
   5  11   6 29.5400 6.56660   2
   5  11   6 13.3534 4.42833   4
  -6 -11  -6 0.79774 3.98356   1
   6  11   6 -1.3154 4.50475   4
   6  11   6 -4.0870 2.80975   5
  -2  12   6 7.42359 3.83820   2
  -2  12   6 5.13949 3.90688   1
  -2  12   6 9.59880 5.01002   4
  -2  12   6 5.25635 4.62682   3
  -1  12   6 4.17234 4.65300   4
  -1  12   6 2.05967 4.18534   3
  -1  12   6 3.60820 3.38257   1
  -1  12   6 0.50009 3.17204   2
   0  12   6 -1.2471 2.73310   2
   0  12   6 -1.9773 4.08559   4
   0  12   6 -1.1275 3.60866   3
   1  12   6 30.5581 6.81280   3
   1  12   6 26.5333 3.43864   5
   1  12   6 33.4452 8.55845   4
   1  12   6 31.5245 5.92105   2
   2  12   6 134.688 6.34532   5
   2  12   6 133.751 10.4668   4
   2  12   6 137.198 8.29670   2
   2  12   6 138.089 6.69893   5
  -3 -12  -6 0.40924 3.43539   1
   3  12   6 -0.0585 2.72410   2
   3  12   6 -2.4939 3.45598   4
   3  12   6 -1.2509 2.27478   5
  -4 -12  -6 6.28369 3.90287   1
   4  12   6 -1.1763 2.51300   5
   4  12   6 -1.3870 3.97753   4
  -5 -12  -6 29.6806 8.25466   1
   5  12   6 26.1303 5.61371   4
   0  13   6 5.81999 4.99013   3
   0  13   6 -4.9545 4.64361   4
   1  13   6 9.38306 4.69389   3
   1  13   6 13.5736 5.47434   4
   2  13   6 59.3849 10.1014   4
   2  13   6 53.9482 5.40841   5
   2  13   6 50.5084 8.66691   3
  -3 -13  -6 59.2150 9.40788   1
   3  13   6 72.2940 10.9876   4
   3  13   6 88.3989 10.2819   3
   3  13   6 66.9109 6.53312   5
   3  10  -7 0.77672 4.79110   4
   3  10  -7 -0.2112 4.21329   5
   3  10  -7 -0.1565 4.77990   3
  -3 -10   7 -5.0130 3.97601   1
   2  10  -7 4.19720 4.65264   3
   2  10  -7 -7.6353 3.54875   5
   2  10  -7 0.12209 4.47698   4
   1  10  -7 1.63336 4.08817   5
   1  10  -7 -1.2012 4.61439   3
   1  10  -7 -1.1843 3.77749   4
   0  10  -7 4.57272 4.23430   4
   0  10  -7 5.35055 3.54555   5
   0  10  -7 8.07004 5.21279   3
  -1  10  -7 3.42554 4.52712   3
  -1  10  -7 1.03031 3.27138   5
  -1  10  -7 4.96668 4.16137   1
  -2  10  -7 -2.8785 4.84036   3
  -2  10  -7 -0.7451 3.11774   5
   4   9  -7 3.40916 4.51437   3
   4   9  -7 34.6130 10.3529   5
   4   9  -7 4.69382 4.63220   4
  -4  -9   7 12.5420 4.25541   1
   3   9  -7 2.85117 3.93449   5
   3   9  -7 -2.8623 3.65101   4
   3   9  -7 -0.4681 3.93042   3
  -3  -9   7 -1.5979 3.32757   1
   2   9  -7 2.66523 4.06122   4
   2   9  -7 8.11086 3.87292   5
   2   9  -7 -1.6199 3.54526   3
  -2  -9   7 -1.3950 2.99458   1
   1   9  -7 1.01511 3.34579   4
   1   9  -7 -1.0710 3.00158   5
   1   9  -7 0.07986 3.71721   3
   0   9  -7 6.71335 3.42340   4
   0   9  -7 5.65478 4.16990   3
   0   9  -7 2.84570 3.22045   5
  -1   9  -7 5.86027 3.93687   3
  -1   9  -7 -0.5703 3.00153   4
  -1   9  -7 -2.6947 2.73077   5
  -2   9  -7 -0.3509 4.20032   3
  -2   9  -7 -1.1258 2.57216   5
  -3   9  -7 -0.9445 3.90992   1
  -3   9  -7 -5.3523 2.82952   5
  -3   9  -7 -4.5525 4.20139   3
  -4   9  -7 31.4195 8.65521   1
  -4   9  -7 38.0567 10.1235   3
  -4   9  -7 39.2778 9.07048   5
   5   8  -7 39.4440 10.6089   5
   5   8  -7 14.5250 4.91732   4
   5   8  -7 19.0201 5.12779   3
  -5  -8   7 8.36125 4.02202   1
   4   8  -7 32.3115 8.18729   4
   4   8  -7 25.3578 6.93507   3
   4   8  -7 25.7257 8.14881   5
   3   8  -7 -2.7942 2.85930   5
   3   8  -7 -4.1764 3.05942   3
   3   8  -7 -4.8064 2.97113   4
  -3  -8   7 2.88424 2.89539   1
   2   8  -7 31.6031 6.54470   5
   2   8  -7 35.4201 7.14606   4
   2   8  -7 23.7320 6.14938   3
  -2  -8   7 22.1222 5.27816   1
   1   8  -7 2.02227 2.80560   4
   1   8  -7 4.23774 2.93815   5
   1   8  -7 1.57353 2.94867   3
   0   8  -7 50.5812 6.25452   5
   0   8  -7 55.9494 6.18524   4
   0   8  -7 58.3142 6.94052   3
  -1   8  -7 19.8824 6.44755   3
  -1   8  -7 8.38928 2.65192   4
  -1   8  -7 9.21805 2.97091   5
   1  -8   7 13.7175 3.83609   2
  -2   8  -7 2.83824 2.75539   1
  -2   8  -7 -3.2453 3.25553   3
  -2   8  -7 0.64611 2.58937   5
   2  -8   7 2.01910 2.49615   2
  -3   8  -7 2.30491 3.33775   1
  -3   8  -7 4.26053 4.20424   3
  -4   8  -7 1.25621 3.49288   5
  -4   8  -7 -0.4607 3.68407   1
  -4   8  -7 -0.3017 4.00698   3
   4  -8   7 0.39994 3.49290   2
  -5   8  -7 -5.5549 3.74537   5
  -5   8  -7 -4.7537 4.59056   3
  -5   8  -7 -4.7605 3.46365   1
   5  -8   7 -3.6144 4.22758   2
   6   7  -7 0.72019 4.28857   4
  -6  -7   7 6.51145 4.33853   1
   5   7  -7 37.7286 8.20711   4
   5   7  -7 60.6643 9.19072   5
   5   7  -7 40.6267 7.36316   3
  -5  -7   7 37.0825 6.88454   1
   4   7  -7 2.95437 3.42852   3
   4   7  -7 -1.9833 3.23550   5
   4   7  -7 -2.3212 3.09640   4
  -4  -7   7 -1.7241 3.54899   5
  -4  -7   7 3.21456 2.81059   1
   3   7  -7 3.89496 3.22992   5
   3   7  -7 1.47538 2.71184   4
   3   7  -7 0.70734 3.10359   3
  -3  -7   7 -0.0307 2.28404   1
  -3  -7   7 1.94981 3.38766   5
   2   7  -7 7.47984 2.54035   5
   2   7  -7 9.84304 3.40391   4
   2   7  -7 9.46401 3.17674   3
  -2  -7   7 7.65781 2.62523   5
  -2  -7   7 8.22493 2.63040   1
   1   7  -7 87.8070 6.59609   4
   1   7  -7 78.7780 8.25040   5
   1   7  -7 82.4776 6.56091   5
   1   7  -7 80.7694 6.76856   3
  -1  -7   7 76.9526 4.07158   2
  -1  -7   7 80.5779 4.95407   2
  -1  -7   7 83.5230 6.31609   5
   0   7  -7 45.8540 5.29377   4
   0   7  -7 30.4389 6.14455   5
   0   7  -7 33.6383 5.12720   5
   0   7  -7 40.6642 5.51029   3
   0  -7   7 39.4114 5.60369   5
   0  -7   7 34.8421 4.54057   2
   0  -7   7 39.7734 4.51806   2
  -1   7  -7 3.67725 3.22176   5
  -1   7  -7 -1.5167 2.02570   4
  -1   7  -7 1.24652 1.91918   5
  -1   7  -7 2.20599 2.72195   3
   1  -7   7 -0.2060 2.16887   5
   1  -7   7 1.59057 1.87261   2
  -2   7  -7 1.02919 1.61117   4
  -2   7  -7 2.40006 2.23132   5
  -2   7  -7 3.26603 2.44164   1
  -2   7  -7 3.14200 3.28055   3
   2  -7   7 -0.2014 2.18081   2
   2  -7   7 -4.0125 4.39000   5
  -3   7  -7 1.50532 2.87380   1
  -3   7  -7 -2.0815 2.02534   5
  -3   7  -7 3.00324 3.44047   3
   3  -7   7 0.19848 2.61410   2
  -4   7  -7 40.1855 7.31655   3
  -4   7  -7 59.6465 7.21299   5
  -4   7  -7 33.9099 6.61974   1
   4  -7   7 56.1445 6.81205   2
  -5   7  -7 35.1940 8.08171   5
  -5   7  -7 49.0603 7.72142   1
  -5   7  -7 32.4740 7.66371   3
   5  -7   7 52.1308 8.14573   2
  -6   7  -7 1.77934 4.03945   5
  -6   7  -7 -5.5591 3.80816   1
  -6   7  -7 -6.4440 4.57929   3
   6  -7   7 3.42156 4.60195   2
   6   6  -7 30.2718 8.33323   4
  -6  -6   7 43.9916 10.9909   5
   5   6  -7 0.87139 3.16907   4
   5   6  -7 -1.5079 2.71159   5
   5   6  -7 5.17092 3.48727   3
  -5  -6   7 2.81510 2.80932   1
  -5  -6   7 0.69888 2.40755   2
  -5  -6   7 5.74448 3.79670   5
   4   6  -7 2.96775 2.75776   4
   4   6  -7 7.75984 3.39503   3
   4   6  -7 4.85585 2.94728   5
  -4  -6   7 4.97547 2.29349   1
  -4  -6   7 5.52843 3.35897   5
  -4  -6   7 1.47032 2.05199   2
   3   6  -7 1.04908 2.60520   4
   3   6  -7 1.40384 2.72840   5
   3   6  -7 1.14237 2.27377   3
  -3  -6   7 -2.1021 1.79670   1
  -3  -6   7 2.23867 2.78091   5
  -3  -6   7 2.87897 1.61615   2
   2   6  -7 31.0034 6.33129   5
   2   6  -7 18.0436 4.74891   4
   2   6  -7 26.6522 4.96358   5
   2   6  -7 29.2839 4.83844   3
  -2  -6   7 23.4799 4.06948   1
  -2  -6   7 16.8346 3.10362   5
  -2  -6   7 21.8869 3.82964   2
  -2  -6   7 11.5652 3.49509   2
   1   6  -7 96.7160 6.29230   4
   1   6  -7 92.1220 6.55815   3
   1   6  -7 80.5388 7.70857   5
   1   6  -7 86.4183 6.07985   5
  -1  -6   7 94.3826 6.22748   5
  -1  -6   7 94.3615 4.65403   2
  -1  -6   7 93.4193 5.44705   1
  -1  -6   7 88.3492 4.98926   2
   0   6  -7 143.812 8.50686   5
   0   6  -7 182.645 8.03561   4
   0   6  -7 172.901 8.73089   3
   0   6  -7 171.312 8.21478   5
   0  -6   7 159.285 9.33188   4
   0  -6   7 161.991 6.60121   2
   0  -6   7 163.530 8.04672   5
  -1   6  -7 9.31441 2.91292   3
  -1   6  -7 13.8531 3.96445   4
  -1   6  -7 9.95472 2.44677   2
  -1   6  -7 11.6278 3.55973   5
  -1   6  -7 14.6020 4.27258   5
   1  -6   7 13.9695 3.92471   5
   1  -6   7 9.02553 2.89139   4
   1  -6   7 15.2907 3.63265   2
  -2   6  -7 3.01296 1.56916   4
  -2   6  -7 1.86232 2.18461   5
  -2   6  -7 4.37989 2.52760   3
  -2   6  -7 1.74547 2.97905   2
  -2   6  -7 3.05624 1.96743   5
  -2   6  -7 15.5662 4.54850   1
   2  -6   7 5.35515 2.21711   4
   2  -6   7 3.82019 2.17470   5
   2  -6   7 3.15638 1.83854   2
  -3   6  -7 9.05985 3.53055   5
  -3   6  -7 7.56223 2.49986   1
  -3   6  -7 9.18570 2.21395   5
  -3   6  -7 10.1741 3.11522   3
   3  -6   7 13.2873 4.44289   2
  -4   6  -7 14.2551 3.52338   3
  -4   6  -7 15.5696 4.79625   1
   4  -6   7 20.4136 5.76448   2
  -5   6  -7 47.3538 7.32997   5
  -5   6  -7 37.8099 6.13294   1
  -5   6  -7 37.2626 7.03604   3
   5  -6   7 29.6184 6.60807   2
  -6   6  -7 0.05735 4.61614   3
  -6   6  -7 2.95004 3.50356   5
  -6   6  -7 0.20042 3.23209   1
   6  -6   7 2.29658 3.80024   2
   7   5  -7 -1.2855 4.07723   4
  -7  -5   7 -3.2403 4.76452   5
  -7  -5   7 -4.6245 3.48397   1
   6   5  -7 6.08787 4.30823   4
   6   5  -7 7.86487 3.71198   3
  -6  -5   7 -1.1282 3.53609   5
  -6  -5   7 4.83898 3.05533   1
   5   5  -7 103.519 8.95600   4
   5   5  -7 102.683 6.92208   3
   5   5  -7 105.412 8.49294   5
  -5  -5   7 102.020 6.97002   2
  -5  -5   7 96.1566 8.83995   5
  -5  -5   7 104.046 6.92607   1
   4   5  -7 94.9189 7.27740   5
   4   5  -7 98.8385 6.37017   3
   4   5  -7 90.7332 7.87718   4
  -4  -5   7 97.1648 7.69598   5
  -4  -5   7 91.1716 5.86542   2
  -4  -5   7 99.9344 6.14480   1
   3   5  -7 305.234 11.9753   5
   3   5  -7 312.425 12.8159   4
   3   5  -7 298.739 11.2903   3
  -3  -5   7 302.204 12.0144   5
  -3  -5   7 297.365 10.2172   2
  -3  -5   7 300.866 10.7920   2
  -3  -5   7 311.769 10.8810   1
   2   5  -7 90.0328 5.94528   3
   2   5  -7 92.7262 6.29121   5
   2   5  -7 92.3743 6.56044   4
   2   5  -7 85.3343 6.13104   1
   2   5  -7 92.8651 6.80302   5
  -2  -5   7 87.4238 6.08020   5
  -2  -5   7 92.3428 4.84416   2
  -2  -5   7 100.105 5.42933   2
  -2  -5   7 94.1680 5.22582   1
   1   5  -7 229.304 9.67714   3
   1   5  -7 235.930 9.40854   5
   1   5  -7 218.793 10.2504   5
   1   5  -7 249.888 9.93374   4
   1   5  -7 213.351 8.58768   1
  -1  -5   7 235.582 8.48018   1
  -1  -5   7 225.020 9.48059   5
  -1  -5   7 222.563 7.98063   2
  -1  -5   7 231.285 8.34299   2
   0   5  -7 -1.4932 1.84083   3
   0   5  -7 0.74967 1.99955   5
   0   5  -7 -2.5927 1.85425   1
   0   5  -7 -2.9361 1.45194   5
   0   5  -7 -0.6426 1.45579   4
   0  -5   7 -0.2907 2.60922   4
   0  -5   7 -0.7565 2.00322   5
   0  -5   7 2.32696 1.43060   2
  -1   5  -7 135.918 7.03378   1
  -1   5  -7 149.204 6.51319   4
  -1   5  -7 148.135 7.86551   3
  -1   5  -7 132.722 6.85818   2
  -1   5  -7 137.801 6.98757   5
  -1   5  -7 126.492 7.29582   5
   1  -5   7 135.562 7.41550   4
   1  -5   7 131.449 7.04913   5
   1  -5   7 138.600 6.23464   2
  -2   5  -7 76.0907 4.26656   4
  -2   5  -7 80.1044 6.31528   3
  -2   5  -7 80.7873 5.34347   5
  -2   5  -7 77.3271 6.24935   2
  -2   5  -7 80.7637 5.22115   1
  -2   5  -7 68.1131 6.74181   5
   2  -5   7 80.4335 5.24453   4
   2  -5   7 80.6256 5.45051   2
   2  -5   7 76.1190 5.29934   5
  -3   5  -7 15.4069 3.85678   1
  -3   5  -7 5.24579 3.24721   5
  -3   5  -7 15.3377 4.56138   5
  -3   5  -7 9.78261 2.91305   3
   3  -5   7 12.5876 2.95486   4
   3  -5   7 12.0472 4.28260   2
   3  -5   7 14.1857 4.28198   5
  -4   5  -7 3.83465 2.31686   1
  -4   5  -7 6.88950 3.08124   5
  -4   5  -7 0.39031 2.49723   3
  -4   5  -7 1.79899 2.30593   5
   4  -5   7 2.94992 2.30477   2
   4  -5   7 3.26982 2.77242   5
  -5   5  -7 25.3421 5.33641   1
  -5   5  -7 19.4034 5.52740   3
  -5   5  -7 12.4331 3.14349   5
   5  -5   7 19.0968 6.26692   2
  -6   5  -7 2.20339 2.98007   5
  -6   5  -7 1.90406 3.52646   3
  -6   5  -7 4.92453 3.46743   1
   6  -5   7 -4.7784 3.03192   2
  -7   5  -7 4.95884 3.98573   1
  -7   5  -7 13.0183 4.44361   5
  -7   5  -7 12.8968 4.88252   3
   7  -5   7 13.7760 4.60524   2
   7   4  -7 2.54894 4.25350   4
  -7  -4   7 1.53124 3.35866   1
  -7  -4   7 -3.0688 3.97499   5
   6   4  -7 0.92303 3.46452   4
   6   4  -7 1.28700 3.86153   3
  -6  -4   7 4.89961 3.68562   5
  -6  -4   7 2.07771 2.48337   1
   5   4  -7 10.7834 2.93805   4
   5   4  -7 21.4089 6.64641   5
   5   4  -7 22.8284 4.49240   3
  -5  -4   7 18.2773 4.21497   1
  -5  -4   7 18.0082 3.49041   5
   4   4  -7 1.94722 2.28591   5
   4   4  -7 1.21899 2.23160   3
   4   4  -7 -1.7080 2.04816   4
  -4  -4   7 -0.7411 3.86817   5
  -4  -4   7 1.84253 1.75603   1
  -4  -4   7 2.47027 2.57100   5
  -4  -4   7 -5.7549 3.17693   2
  -4  -4   7 1.24119 1.96961   2
   3   4  -7 240.795 10.6598   4
   3   4  -7 244.106 9.98418   5
   3   4  -7 234.053 9.29713   1
   3   4  -7 244.173 9.39807   3
  -3  -4   7 223.916 9.22034   2
  -3  -4   7 217.760 10.5592   5
  -3  -4   7 247.925 10.0071   5
  -3  -4   7 239.876 8.95925   2
  -3  -4   7 222.657 9.61548   3
  -3  -4   7 262.250 8.94640   1
   2   4  -7 2.38776 1.78441   1
   2   4  -7 1.22562 2.24626   5
   2   4  -7 1.30873 1.71779   4
   2   4  -7 2.42965 1.76807   5
   2   4  -7 0.98164 1.74931   3
  -2  -4   7 3.90824 1.94168   2
  -2  -4   7 -0.0187 2.65321   5
  -2  -4   7 1.88289 1.42573   2
  -2  -4   7 2.89276 1.39795   1
  -2  -4   7 1.30311 1.63252   5
   1   4  -7 -1.4367 2.12133   5
   1   4  -7 -0.2755 1.78791   3
   1   4  -7 2.71735 1.49316   1
   1   4  -7 -0.7585 1.45653   4
   1   4  -7 3.47518 1.83667   5
  -1  -4   7 0.25287 1.29468   2
  -1  -4   7 2.08570 1.92825   5
  -1  -4   7 0.01594 1.09386   1
  -1  -4   7 0.79754 1.80479   2
  -1  -4   7 -0.3063 1.55282   5
   0   4  -7 44.8244 4.42238   3
   0   4  -7 45.1512 4.26702   4
   0   4  -7 42.8928 4.10444   5
   0   4  -7 43.6854 4.14476   5
   0   4  -7 39.4594 3.70430   1
   0  -4   7 52.1451 4.38554   5
   0  -4   7 44.4227 3.68000   2
   0  -4   7 39.9734 4.36291   5
   0  -4   7 47.5056 4.89366   4
  -1   4  -7 31.3304 4.25492   3
  -1   4  -7 28.5093 3.91793   2
  -1   4  -7 24.9483 4.50735   5
  -1   4  -7 30.5423 3.41311   4
  -1   4  -7 26.5622 3.06744   1
  -1   4  -7 26.6808 3.60785   5
  -1   4  -7 28.1760 3.50251   1
   1  -4   7 29.0731 4.51440   5
   1  -4   7 34.2753 3.62905   2
   1  -4   7 28.8936 3.86077   5
   1  -4   7 25.1073 4.21444   4
  -2   4  -7 26.4736 3.97312   1
  -2   4  -7 20.3976 4.04176   5
  -2   4  -7 26.4914 4.44707   2
  -2   4  -7 21.3765 3.84815   3
  -2   4  -7 21.5985 4.23224   5
  -2   4  -7 20.7845 3.20641   1
  -2   4  -7 19.1268 2.95451   4
   2  -4   7 19.8052 3.46307   2
   2  -4   7 12.6655 3.74830   5
   2  -4   7 19.7456 3.74500   4
  -3   4  -7 250.196 10.4388   1
  -3   4  -7 288.897 11.4625   3
  -3   4  -7 286.901 10.7471   5
  -3   4  -7 283.641 11.1274   5
  -3   4  -7 289.962 10.2980   1
   3  -4   7 288.797 10.9069   2
   3  -4   7 276.839 10.5106   5
   3  -4   7 283.466 8.94414   4
  -4   4  -7 19.6206 5.51567   5
  -4   4  -7 28.2725 4.91198   5
  -4   4  -7 24.6043 4.94556   3
  -4   4  -7 21.8048 4.14827   1
   4  -4   7 24.0386 4.93527   2
   4  -4   7 24.5244 5.41633   5
  -5   4  -7 2.61585 2.82897   3
  -5   4  -7 4.32372 2.52513   5
  -5   4  -7 3.47649 2.36476   1
  -5   4  -7 5.76835 3.69382   5
   5  -4   7 2.84493 2.81316   5
   5  -4   7 -0.5810 2.22739   2
  -6   4  -7 0.11507 2.70662   1
  -6   4  -7 -2.8418 2.83405   3
  -6   4  -7 -4.7663 2.42519   5
   6  -4   7 1.51172 2.97422   2
  -7   4  -7 0.84736 3.16851   1
  -7   4  -7 -5.2958 3.25406   5
  -7   4  -7 6.22685 4.47473   3
   7  -4   7 -4.5093 3.39529   2
   7   3  -7 0.59269 3.77850   4
  -7  -3   7 1.41207 3.11725   1
  -7  -3   7 -1.4558 3.89163   5
   6   3  -7 2.92692 2.86949   4
  -6  -3   7 7.08853 3.44503   5
  -6  -3   7 -2.7098 2.38476   1
   5   3  -7 9.43434 2.15778   3
   5   3  -7 19.6362 5.20253   5
   5   3  -7 23.2185 5.73280   4
  -5  -3   7 12.7651 5.06816   5
  -5  -3   7 15.0384 3.81152   1
  -5  -3   7 20.1116 5.15764   5
   4   3  -7 0.17636 2.64893   1
   4   3  -7 1.39116 2.25491   4
   4   3  -7 0.79669 1.97253   5
   4   3  -7 1.18141 1.73561   3
  -4  -3   7 -1.2512 1.33834   1
  -4  -3   7 1.23342 1.75204   5
  -4  -3   7 5.15403 2.74683   5
   3   3  -7 6.72141 2.02950   4
   3   3  -7 14.1919 3.68805   1
   3   3  -7 3.07608 2.03981   5
   3   3  -7 6.38908 2.10756   3
  -3  -3   7 5.11607 2.67110   3
  -3  -3   7 9.11597 3.12790   2
  -3  -3   7 5.31981 2.51169   2
  -3  -3   7 4.31933 1.81719   5
  -3  -3   7 11.8757 2.59852   1
  -3  -3   7 7.15853 2.52137   5
   2   3  -7 53.9121 5.27221   5
   2   3  -7 56.3672 4.32240   5
   2   3  -7 56.2123 4.50931   3
   2   3  -7 60.3809 5.16002   4
   2   3  -7 62.1158 3.85531   1
  -2  -3   7 61.0022 3.51303   1
  -2  -3   7 59.6646 4.72256   2
  -2  -3   7 54.3944 4.52283   5
  -2  -3   7 60.6261 5.34144   5
  -2  -3   7 54.2740 5.05810   3
  -2  -3   7 57.6058 4.13974   2
   1   3  -7 115.511 6.09544   3
   1   3  -7 119.984 6.28696   4
   1   3  -7 117.090 5.02785   1
   1   3  -7 115.896 6.09701   5
  -1  -3   7 117.510 5.46217   2
  -1  -3   7 110.099 6.25010   3
  -1  -3   7 114.459 5.76517   2
  -1  -3   7 111.652 5.94446   5
  -1  -3   7 114.893 4.70765   1
  -1  -3   7 128.064 6.10354   5
   0   3  -7 15.2460 2.54726   1
   0   3  -7 14.3614 3.13867   3
   0   3  -7 19.7607 3.20881   5
   0   3  -7 18.8127 3.31808   4
   0   3  -7 19.6637 3.13494   5
   0  -3   7 10.1323 2.55990   2
   0  -3   7 18.7874 3.06544   5
   0  -3   7 10.9241 2.40881   4
   0  -3   7 14.9233 2.87808   5
   0  -3   7 8.87652 2.55571   3
  -1   3  -7 219.998 8.86245   3
  -1   3  -7 207.056 8.18872   2
  -1   3  -7 211.374 8.20196   5
  -1   3  -7 207.143 7.19397   1
  -1   3  -7 220.062 8.13162   4
  -1   3  -7 211.663 7.38539   1
  -1   3  -7 217.092 8.58025   5
   1  -3   7 210.198 8.04536   4
   1  -3   7 220.341 8.37883   5
   1  -3   7 218.391 8.65007   5
   1  -3   7 208.058 8.13976   2
  -2   3  -7 30.4001 3.04473   1
  -2   3  -7 35.8696 4.35923   2
  -2   3  -7 33.5973 3.09607   4
  -2   3  -7 33.6138 3.95747   3
  -2   3  -7 23.9617 4.26820   5
  -2   3  -7 33.7807 3.77267   5
  -2   3  -7 38.3080 3.66991   1
   2  -3   7 31.5566 3.63530   4
   2  -3   7 43.6186 4.29463   5
   2  -3   7 34.1434 3.74437   2
  -3   3  -7 602.990 17.3842   1
  -3   3  -7 597.759 19.0055   3
  -3   3  -7 598.704 18.6490   5
  -3   3  -7 583.575 17.5171   1
  -3   3  -7 601.807 18.0812   5
   3  -3   7 585.326 18.3271   5
   3  -3   7 606.168 18.4498   2
   3  -3   7 572.697 18.1655   5
   3  -3   7 598.930 16.6271   4
  -4   3  -7 8.48883 2.24406   5
  -4   3  -7 9.28346 2.60274   3
  -4   3  -7 8.62927 3.42720   5
  -4   3  -7 14.5570 3.45537   1
   4  -3   7 13.3077 3.96660   2
   4  -3   7 13.1206 4.35018   5
   4  -3   7 10.9498 2.82524   4
  -5   3  -7 308.185 11.6315   1
  -5   3  -7 317.039 12.4750   3
  -5   3  -7 280.195 13.1859   5
  -5   3  -7 316.779 11.8813   5
   5  -3   7 317.103 12.5593   2
   5  -3   7 305.664 12.1148   5
  -6   3  -7 -0.2568 2.41199   5
  -6   3  -7 1.02004 2.58506   1
  -6   3  -7 -0.2169 2.67717   3
   6  -3   7 1.95637 2.77926   2
   6  -3   7 1.74774 2.77433   5
  -7   3  -7 38.9065 7.74528   3
  -7   3  -7 36.6064 7.09289   1
  -7   3  -7 39.8437 7.54102   5
   7  -3   7 25.5120 7.35560   2
  -8   3  -7 4.49642 4.37223   3
  -8   3  -7 1.92589 4.45800   5
   8  -3   7 7.07263 4.41558   2
   7   2  -7 -6.6334 3.48626   4
  -7  -2   7 1.73952 3.01938   1
  -7  -2   7 1.15864 3.75221   5
   6   2  -7 21.7321 6.92054   4
  -6  -2   7 4.98140 2.29769   1
  -6  -2   7 7.56387 2.97337   5
   5   2  -7 2.57765 2.48596   4
   5   2  -7 -4.1032 2.11183   5
   5   2  -7 -1.0227 1.50766   3
  -5  -2   7 -0.6923 3.06864   5
  -5  -2   7 2.42327 1.80344   1
  -5  -2   7 0.46127 2.31100   5
   4   2  -7 62.1370 5.99984   4
   4   2  -7 54.0459 4.84140   5
   4   2  -7 49.0662 3.69230   3
   4   2  -7 48.9216 4.91504   1
  -4  -2   7 59.8648 5.20481   5
  -4  -2   7 53.8572 3.82290   1
  -4  -2   7 42.0344 6.37799   5
   3   2  -7 4.26730 1.70366   1
   3   2  -7 2.76576 1.69743   3
   3   2  -7 3.08556 1.54807   5
   3   2  -7 2.37291 1.82206   4
  -3  -2   7 3.39159 2.03318   3
  -3  -2   7 0.26838 1.66852   5
  -3  -2   7 2.80860 2.23399   5
  -3  -2   7 2.57652 1.17593   1
  -3  -2   7 13.1292 4.37744   2
   2   2  -7 3.70237 1.80146   4
   2   2  -7 3.98832 1.80971   5
   2   2  -7 1.47173 1.39151   3
   2   2  -7 0.41155 1.43390   5
   2   2  -7 3.24321 1.13001   1
  -2  -2   7 0.77875 1.21344   5
  -2  -2   7 0.15652 1.56595   5
  -2  -2   7 4.58656 1.89905   2
  -2  -2   7 2.71788 1.31548   2
  -2  -2   7 1.38233 1.70115   3
   1   2  -7 1.58997 1.40581   5
   1   2  -7 2.84308 1.44334   4
   1   2  -7 1.17286 1.30754   3
   1   2  -7 2.07146 0.99838   1
   1   2  -7 1.25385 1.23613   5
  -1  -2   7 0.61542 1.62546   4
  -1  -2   7 2.81909 0.95864   1
  -1  -2   7 2.19849 1.25993   5
  -1  -2   7 0.33157 1.59355   3
  -1  -2   7 4.37213 1.62655   5
  -1  -2   7 1.09055 1.06932   2
  -1  -2   7 0.61675 1.58998   2
   0   2  -7 357.626 11.9788   4
   0   2  -7 361.045 10.1308   1
   0   2  -7 356.194 11.8069   5
   0   2  -7 355.126 11.9846   3
   0   2  -7 360.857 11.6273   5
   0  -2   7 356.645 11.6873   2
   0  -2   7 355.197 11.9012   5
   0  -2   7 343.463 11.9959   3
   0  -2   7 413.085 12.5245   5
   0  -2   7 361.921 12.2764   4
  -1   2  -7 83.7000 4.64786   5
  -1   2  -7 79.8995 3.54834   1
  -1   2  -7 77.1910 3.64126   1
  -1   2  -7 80.4145 4.63647   4
  -1   2  -7 81.4981 4.76134   5
  -1   2  -7 77.0550 4.90797   2
  -1   2  -7 82.4703 4.87438   3
   1  -2   7 84.5474 4.65760   5
   1  -2   7 74.9430 4.82014   5
   1  -2   7 82.6653 5.16133   3
   1  -2   7 80.7530 4.77741   2
   1  -2   7 87.3380 4.83919   4
  -2   2  -7 81.0347 4.39852   4
  -2   2  -7 82.7904 5.34063   2
  -2   2  -7 81.8701 4.10275   1
  -2   2  -7 78.0937 3.87720   1
  -2   2  -7 77.2859 4.71476   5
  -2   2  -7 82.6609 5.08288   5
  -2   2  -7 78.1315 5.07116   3
   2  -2   7 88.9759 4.69152   4
   2  -2   7 85.9852 5.11386   5
   2  -2   7 70.4157 5.12529   5
   2  -2   7 83.7207 5.03078   2
  -3   2  -7 3.61747 1.68982   1
  -3   2  -7 4.17329 1.61711   5
  -3   2  -7 4.26287 2.31503   2
  -3   2  -7 3.63622 1.37093   5
  -3   2  -7 4.77622 1.48057   1
  -3   2  -7 5.12429 1.78497   3
   3  -2   7 4.72147 1.55593   4
   3  -2   7 1.77664 1.49128   2
   3  -2   7 5.60701 1.88972   5
  -4   2  -7 51.0299 5.01231   5
  -4   2  -7 43.8220 4.63297   5
  -4   2  -7 48.5998 4.63833   3
  -4   2  -7 49.7429 4.09170   1
   4  -2   7 47.0661 3.94346   4
   4  -2   7 43.7873 4.59857   5
   4  -2   7 43.7951 5.66453   5
   4  -2   7 52.7193 3.53356   4
   4  -2   7 47.2524 4.96322   2
  -5   2  -7 35.7807 6.17646   5
  -5   2  -7 29.2158 4.81000   3
  -5   2  -7 25.8399 4.33679   1
  -5   2  -7 30.9032 4.70395   5
   5  -2   7 22.2324 4.80831   2
   5  -2   7 26.5269 3.37713   4
   5  -2   7 25.5096 3.25207   4
   5  -2   7 33.6645 5.35313   5
  -6   2  -7 18.7973 5.74974   5
  -6   2  -7 20.6898 4.70279   1
  -6   2  -7 15.6425 4.95866   3
   6  -2   7 19.4970 6.34248   5
   6  -2   7 21.4980 5.56249   2
  -7   2  -7 16.7471 5.65146   1
  -7   2  -7 17.9290 6.02480   5
  -7   2  -7 21.6545 6.41209   3
   7  -2   7 26.4527 6.40599   2
  -8   2  -7 1.99716 4.38199   3
  -8   2  -7 1.02670 3.63842   5
   8  -2   7 -3.1282 3.98400   2
   7   1  -7 6.04413 3.58564   4
  -7  -1   7 5.94083 3.45205   5
   6   1  -7 1.38804 2.76034   4
  -6  -1   7 -2.3334 2.44174   5
  -6  -1   7 1.23314 2.24236   1
   5   1  -7 -4.1344 3.23754   1
   5   1  -7 -0.1487 2.12679   4
  -5  -1   7 0.95602 1.54559   1
  -5  -1   7 2.62676 2.85833   5
  -5  -1   7 3.11740 2.16831   5
   4   1  -7 11.5123 2.43302   3
   4   1  -7 14.7099 4.42938   4
   4   1  -7 15.7451 4.05426   5
   4   1  -7 13.4553 3.68179   1
  -4  -1   7 9.42771 2.84006   5
  -4  -1   7 21.4225 3.89813   5
  -4  -1   7 13.9934 2.58814   1
   3   1  -7 67.9254 4.54158   5
   3   1  -7 56.9250 3.74160   1
   3   1  -7 61.3287 3.62361   3
   3   1  -7 60.4938 5.18324   4
  -3  -1   7 51.8659 5.86130   2
  -3  -1   7 60.0440 4.04782   3
  -3  -1   7 58.7156 4.47786   5
  -3  -1   7 63.8359 4.66691   5
  -3  -1   7 62.9174 3.38839   1
   2   1  -7 34.3474 4.05694   4
   2   1  -7 34.1136 2.50750   1
   2   1  -7 34.0965 3.55832   5
   2   1  -7 30.1843 3.26886   5
   2   1  -7 27.6679 2.86218   3
  -2  -1   7 35.9155 3.74852   2
  -2  -1   7 26.0276 3.26226   3
  -2  -1   7 33.5284 3.83362   2
  -2  -1   7 33.3976 3.41192   5
  -2  -1   7 28.7707 3.20645   5
  -2  -1   7 30.7841 2.22541   1
   1   1  -7 11.0815 2.48593   5
   1   1  -7 6.58284 2.32867   3
   1   1  -7 15.6380 3.28735   4
   1   1  -7 9.25335 2.36274   5
  -1  -1   7 10.0573 2.50599   5
  -1  -1   7 11.6116 3.18640   4
  -1  -1   7 5.11682 1.90274   2
  -1  -1   7 11.9675 2.57291   2
  -1  -1   7 8.89034 2.60738   3
   0   1  -7 67.6020 3.88465   5
   0   1  -7 64.7996 4.29029   4
   0   1  -7 62.1716 4.00648   5
   0   1  -7 66.7321 4.15485   3
   0   1  -7 68.8132 2.50942   1
   0  -1   7 68.2669 4.11986   5
   0  -1   7 67.0972 4.25109   2
   0  -1   7 70.9844 4.78599   4
   0  -1   7 63.5925 4.17226   5
   0  -1   7 67.4236 4.33939   3
  -1   1  -7 11.2847 2.49380   3
  -1   1  -7 12.0657 1.52449   1
  -1   1  -7 10.8633 2.58478   5
  -1   1  -7 10.7011 3.03129   2
  -1   1  -7 14.2471 2.68092   4
  -1   1  -7 11.5430 1.46307   1
   1  -1   7 14.7347 2.72873   5
   1  -1   7 10.6491 2.58693   5
   1  -1   7 10.1504 2.45335   2
   1  -1   7 10.7021 3.09738   3
   1  -1   7 9.78780 3.16507   4
  -2   1  -7 30.8631 3.19030   5
  -2   1  -7 26.6707 2.96375   4
  -2   1  -7 24.5136 3.89669   2
  -2   1  -7 29.1075 2.34035   1
  -2   1  -7 27.0866 2.24404   1
   2  -1   7 26.3744 3.21615   5
   2  -1   7 26.7665 3.18886   2
   2  -1   7 21.4930 3.49386   3
   2  -1   7 31.2424 3.32710   4
   2  -1   7 35.8064 3.37438   5
  -3   1  -7 284.723 10.4325   5
  -3   1  -7 291.368 9.24865   1
  -3   1  -7 292.981 10.7605   3
  -3   1  -7 277.675 10.8340   2
   3  -1   7 298.666 10.5379   5
   3  -1   7 287.557 9.65105   4
   3  -1   7 291.342 10.7043   2
   3  -1   7 295.176 10.3823   5
  -4   1  -7 2.06010 1.27620   1
  -4   1  -7 1.92182 1.68282   5
  -4   1  -7 1.80528 2.25739   5
  -4   1  -7 2.18540 1.84976   3
   4  -1   7 1.70843 1.64458   5
   4  -1   7 1.05928 1.59559   4
   4  -1   7 0.05301 1.44579   5
   4  -1   7 1.10315 1.43279   2
  -5   1  -7 116.700 6.78925   5
  -5   1  -7 92.4609 7.69603   5
  -5   1  -7 109.202 6.51258   3
  -5   1  -7 111.269 6.13179   1
   5  -1   7 99.7839 5.10607   4
   5  -1   7 104.589 5.57671   4
   5  -1   7 115.044 6.92702   5
   5  -1   7 115.366 7.17499   2
  -6   1  -7 27.2108 5.14306   5
  -6   1  -7 33.9535 4.73009   1
  -6   1  -7 29.0425 4.98207   3
   6  -1   7 33.7334 6.11464   5
   6  -1   7 34.1094 5.72926   2
   6  -1   7 22.7091 4.34162   4
  -7   1  -7 153.938 9.03108   5
  -7   1  -7 141.935 8.86765   3
  -7   1  -7 140.899 8.59732   1
   7  -1   7 131.134 6.06910   4
   7  -1   7 149.569 9.41523   2
   7  -1   7 142.576 9.65740   5
  -8   1  -7 2.22957 3.64767   3
  -8   1  -7 3.22354 3.89230   5
  -8   1  -7 3.28943 3.18340   1
   8  -1   7 -3.6424 3.62677   2
  -7   0   7 -0.9350 2.67867   1
  -7   0   7 -3.6728 3.07656   5
   6   0  -7 23.7282 6.08068   4
  -6   0   7 15.3966 4.19599   1
  -6   0   7 7.47594 2.89862   5
   5   0  -7 56.1413 5.55273   5
   5   0  -7 70.2290 6.50367   4
   5   0  -7 59.3005 6.50014   1
  -5   0   7 68.4060 4.56048   1
  -5   0   7 56.3279 6.26274   5
  -5   0   7 68.2353 5.79190   5
   4   0  -7 2.39417 2.16163   4
   4   0  -7 0.17982 1.69536   5
   4   0  -7 1.10617 1.81031   1
  -4   0   7 0.33961 1.60117   5
  -4   0   7 -0.9062 2.16860   5
  -4   0   7 0.99312 1.22442   1
   3   0  -7 9.51445 2.57881   1
   3   0  -7 10.8343 3.54221   4
   3   0  -7 9.43013 3.04995   5
  -3   0   7 4.71284 1.74451   5
  -3   0   7 7.26336 1.60731   3
  -3   0   7 7.71546 2.49326   5
   2   0  -7 94.2704 4.46755   3
   2   0  -7 96.4334 5.79408   4
   2   0  -7 96.0925 3.55459   1
   2   0  -7 95.6576 4.83090   5
  -2   0   7 96.9140 5.13001   5
  -2   0   7 92.0346 4.58013   3
  -2   0   7 96.1064 5.50664   2
  -2   0   7 97.3402 3.44296   1
  -2   0   7 94.1954 4.97437   5
  -2   0   7 94.1071 5.55550   2
   1   0  -7 106.566 4.70352   5
   1   0  -7 107.069 5.03560   3
   1   0  -7 108.728 5.77760   4
  -1   0   7 102.277 5.11238   5
  -1   0   7 106.005 5.47446   2
  -1   0   7 107.665 5.61900   2
  -1   0   7 112.236 5.75267   4
  -1   0   7 101.655 5.00262   5
  -1   0   7 114.997 5.14521   3
   0   0  -7 28.7764 2.77445   5
   0   0  -7 29.6165 2.76794   5
   0   0  -7 25.8467 2.91449   3
   0   0  -7 35.8069 3.36821   4
   0   0   7 31.3945 2.99958   5
   0   0   7 28.9120 2.84318   5
   0   0   7 29.2514 3.80068   4
   0   0   7 28.7832 3.28583   3
   0   0   7 31.0475 2.95152   2
  -1   0  -7 11.3566 2.99305   2
  -1   0  -7 9.67914 2.34748   5
  -1   0  -7 12.8540 2.33785   5
  -1   0  -7 12.8570 2.43560   4
  -1   0  -7 11.1735 2.58032   3
   1   0   7 7.73266 1.93517   4
   1   0   7 11.4997 2.62642   5
   1   0   7 16.0008 2.62170   2
   1   0   7 9.08360 2.05135   3
   1   0   7 17.0124 2.55784   5
  -2   0  -7 4.14538 1.45564   3
  -2   0  -7 4.49348 1.38385   1
  -2   0  -7 1.97771 1.11634   5
  -2   0  -7 4.06081 1.32720   5
  -2   0  -7 1.54230 1.09829   4
  -2   0  -7 3.13478 1.47770   2
   2   0   7 2.38778 1.49191   4
   2   0   7 2.19005 1.18950   2
   2   0   7 9.06455 2.66690   3
   2   0   7 1.94840 1.19028   5
   2   0   7 1.45034 1.55067   5
  -3   0  -7 23.1079 2.38229   1
  -3   0  -7 22.0847 2.93489   5
  -3   0  -7 23.7343 3.32890   5
  -3   0  -7 23.2234 4.07004   2
  -3   0  -7 29.2618 3.61979   3
   3   0   7 29.4894 3.45257   4
   3   0   7 28.1668 3.38545   2
   3   0   7 26.4911 5.26988   3
   3   0   7 31.0665 3.59365   5
   3   0   7 25.7548 3.39810   5
  -4   0  -7 42.8002 4.46309   3
  -4   0  -7 43.6389 3.86515   5
  -4   0  -7 41.2087 3.42377   1
  -4   0  -7 34.6094 4.65418   5
   4   0   7 33.9583 3.82852   5
   4   0   7 45.1438 3.95761   1
   4   0   7 38.9664 4.76160   5
   4   0   7 40.5367 4.33906   2
   4   0   7 44.4768 4.08077   4
  -5   0  -7 5.79531 2.49001   5
  -5   0  -7 1.24860 2.08334   3
  -5   0  -7 2.51584 1.99137   5
  -5   0  -7 3.34712 1.66571   1
   5   0   7 2.66495 1.68545   4
   5   0   7 6.54320 2.55132   5
   5   0   7 1.13676 2.03018   4
   5   0   7 3.65679 2.27738   1
   5   0   7 2.17107 1.77702   5
   5   0   7 3.53991 2.11665   2
  -6   0  -7 91.8969 5.87947   1
  -6   0  -7 92.2416 6.82637   3
  -6   0  -7 97.7899 6.88053   5
   6   0   7 96.5470 7.14431   2
   6   0   7 97.9459 6.28288   4
   6   0   7 98.9198 7.42995   5
   6   0   7 98.0219 5.44915   4
  -7   0  -7 2.64489 2.71887   3
  -7   0  -7 1.17754 2.33342   1
  -7   0  -7 -2.0522 2.61485   5
   7   0   7 2.55124 1.98226   4
   7   0   7 2.99902 2.78902   2
   7   0   7 -0.3021 2.97932   5
  -8   0  -7 54.0584 7.62478   3
  -8   0  -7 69.3332 8.15172   1
  -8   0  -7 61.1951 8.86438   5
   8   0   7 73.4075 8.77176   2
   8   0   7 60.6975 5.44474   4
   8   0   7 67.7498 15.8378   5
  -9   0  -7 -3.0318 4.10588   1
  -9   0  -7 3.57856 5.18483   3
   7  -1  -7 1.42805 3.98907   4
   7  -1  -7 1.18499 3.40122   2
  -7   1   7 1.06303 3.31930   5
  -7   1   7 -1.8315 2.61527   1
   6  -1  -7 74.3533 7.97121   4
  -6   1   7 60.4439 5.24191   1
  -6   1   7 73.1979 6.73873   5
   5  -1  -7 3.65826 2.25226   5
   5  -1  -7 8.62831 3.00087   1
   5  -1  -7 6.87957 2.64775   4
  -5   1   7 2.73419 1.68838   1
  -5   1   7 3.31433 1.81035   5
  -5   1   7 2.23903 2.58421   5
   4  -1  -7 167.563 8.75360   4
   4  -1  -7 165.711 6.77988   5
   4  -1  -7 167.796 6.92546   1
  -4   1   7 170.347 6.43555   1
  -4   1   7 167.661 7.44474   5
  -4   1   7 158.205 7.71231   5
   3  -1  -7 147.944 5.76606   5
   3  -1  -7 141.317 5.11487   3
   3  -1  -7 135.639 5.33017   1
   3  -1  -7 144.378 7.48614   4
  -3   1   7 136.577 6.31909   5
  -3   1   7 132.835 5.06263   3
  -3   1   7 141.155 6.32177   5
   2  -1  -7 14.9587 2.41142   3
   2  -1  -7 20.0377 3.33017   4
   2  -1  -7 18.4625 2.55888   5
  -2   1   7 14.8797 2.34588   5
  -2   1   7 18.0623 2.54272   3
  -2   1   7 19.4305 2.71047   5
  -2   1   7 17.6385 1.49472   1
  -2   1   7 18.0696 3.95686   2
   1  -1  -7 5.18692 1.44739   4
   1  -1  -7 9.17745 2.32380   3
   1  -1  -7 11.1080 2.23658   5
   1  -1  -7 7.53715 2.16529   5
  -1   1   7 10.8899 3.24444   4
  -1   1   7 7.02525 2.10666   5
  -1   1   7 9.71271 2.47070   2
  -1   1   7 5.96215 1.62547   3
  -1   1   7 10.9584 2.08176   5
  -1   1   7 10.6527 2.99289   2
   0  -1  -7 86.8159 4.10716   5
   0  -1  -7 96.3678 4.20581   5
   0  -1  -7 93.2020 5.21439   4
   0  -1  -7 93.2791 4.66580   3
   0   1   7 88.3911 5.20299   4
   0   1   7 93.2190 4.68865   3
   0   1   7 93.5166 4.97575   2
   0   1   7 93.7376 4.47899   5
   0   1   7 92.0037 4.40923   5
  -1  -1  -7 113.581 5.45900   3
  -1  -1  -7 115.119 5.61420   4
  -1  -1  -7 113.286 4.77061   5
   1   1   7 109.710 5.00752   5
   1   1   7 115.819 5.75799   2
   1   1   7 114.757 5.68956   4
   1   1   7 113.317 5.49756   3
   1   1   7 121.426 5.27677   5
  -2  -1  -7 137.222 4.27293   1
  -2  -1  -7 136.586 5.49244   5
  -2  -1  -7 142.069 6.19522   4
  -2  -1  -7 124.500 6.15981   2
  -2  -1  -7 129.948 6.09671   3
  -2  -1  -7 125.956 5.55917   5
   2   1   7 133.272 5.90081   5
   2   1   7 132.427 6.10365   3
   2   1   7 139.851 5.68419   5
   2   1   7 137.736 6.37212   2
   2   1   7 131.450 6.07403   4
  -3  -1  -7 68.1748 4.92609   2
  -3  -1  -7 74.7933 4.36934   5
  -3  -1  -7 69.5370 4.83572   3
  -3  -1  -7 78.2630 4.49178   5
   3   1   7 74.7506 4.53098   5
   3   1   7 66.8896 4.83618   3
   3   1   7 79.7351 5.10659   2
   3   1   7 84.7701 4.81864   5
   3   1   7 74.7947 4.77157   4
   3   1   7 69.5069 3.58869   1
  -4  -1  -7 12.6636 2.60557   1
  -4  -1  -7 7.50813 2.12662   3
  -4  -1  -7 9.60333 3.23279   5
  -4  -1  -7 14.5732 3.70709   5
   4   1   7 9.40522 3.26568   2
   4   1   7 5.65128 1.77564   5
   4   1   7 12.2318 2.76934   1
   4   1   7 13.0208 3.29131   5
   4   1   7 7.63425 1.99720   4
   4   1   7 13.4915 3.05423   4
  -5  -1  -7 21.3585 3.87925   5
  -5  -1  -7 30.5542 3.61830   1
  -5  -1  -7 23.3836 4.15260   3
   5   1   7 22.6332 4.53221   1
   5   1   7 20.6216 4.27756   5
   5   1   7 21.1094 3.52254   4
   5   1   7 30.0529 4.59251   4
   5   1   7 24.0219 4.38515   2
   5   1   7 16.1629 3.15825   5
  -6  -1  -7 18.7571 4.37685   1
  -6  -1  -7 9.37640 2.56968   5
  -6  -1  -7 19.0658 4.43386   3
   6   1   7 15.1651 3.64564   4
   6   1   7 30.8327 7.40237   5
   6   1   7 15.3838 4.93130   5
   6   1   7 10.9616 2.96073   4
   6   1   7 16.6226 4.73622   2
  -7  -1  -7 37.1385 6.36550   5
  -7  -1  -7 41.0515 5.75691   1
   7   1   7 36.5309 6.26328   5
   7   1   7 26.7707 5.69258   2
   7   1   7 35.5737 4.33122   4
  -8  -1  -7 16.1705 3.73135   1
  -8  -1  -7 28.7085 7.80420   5
  -8  -1  -7 18.7220 4.41930   3
   8   1   7 24.9885 5.20371   4
   8   1   7 16.5619 4.29949   5
   8   1   7 35.0853 6.97687   2
  -9  -1  -7 17.4021 5.51159   3
  -9  -1  -7 5.62775 4.11669   1
   9   1   7 10.2879 4.85928   2
   7  -2  -7 31.5040 8.04635   4
   7  -2  -7 23.1603 7.02936   2
  -7   2   7 19.8009 5.91732   5
  -7   2   7 20.2259 5.71866   1
   6  -2  -7 37.4191 6.28530   4
   6  -2  -7 30.1792 6.46677   2
  -6   2   7 21.2430 4.79897   1
  -6   2   7 18.7671 4.50388   5
   5  -2  -7 440.920 15.5483   1
   5  -2  -7 493.728 17.1221   4
   5  -2  -7 464.998 14.1213   5
  -5   2   7 522.341 15.3348   1
  -5   2   7 461.954 15.5106   5
  -5   2   7 504.053 16.0575   5
   4  -2  -7 320.293 12.5441   4
   4  -2  -7 310.690 10.5147   1
   4  -2  -7 316.639 9.94316   5
  -4   2   7 310.986 10.2687   1
  -4   2   7 333.435 11.3203   5
  -4   2   7 318.298 11.1009   5
   3  -2  -7 -0.9472 1.29882   5
   3  -2  -7 0.50817 1.07583   3
   3  -2  -7 1.07761 1.51265   4
  -3   2   7 1.13776 1.31044   5
  -3   2   7 0.25439 1.46583   5
  -3   2   7 1.95538 1.25725   1
  -3   2   7 3.55842 1.21034   3
   2  -2  -7 -2.0803 1.02482   5
   2  -2  -7 0.28696 1.07707   3
   2  -2  -7 -1.7865 1.13829   4
  -2   2   7 0.57247 0.96939   5
  -2   2   7 -0.3315 1.23702   3
  -2   2   7 -0.3108 0.66293   1
  -2   2   7 -1.0826 0.98949   5
   1  -2  -7 30.6770 3.37371   4
   1  -2  -7 29.0879 2.65323   3
   1  -2  -7 31.0857 2.45261   5
   1  -2  -7 23.7320 2.26203   5
  -1   2   7 27.6784 2.41299   5
  -1   2   7 33.0285 3.53379   2
  -1   2   7 28.3148 2.94859   3
  -1   2   7 24.2783 3.68563   4
  -1   2   7 20.9689 3.40249   2
  -1   2   7 28.9624 2.58763   5
   0  -2  -7 498.144 15.5191   4
   0  -2  -7 489.717 14.6879   3
   0  -2  -7 478.306 13.5544   5
   0  -2  -7 495.726 13.5433   5
   0   2   7 501.457 14.7370   3
   0   2   7 502.129 14.1152   5
   0   2   7 507.789 14.4034   5
   0   2   7 481.904 15.1844   4
   0   2   7 497.841 15.5038   2
  -1  -2  -7 369.640 11.0784   5
  -1  -2  -7 392.641 11.0437   5
  -1  -2  -7 374.951 12.4913   4
  -1  -2  -7 379.610 12.2530   3
   1   2   7 381.529 12.6161   2
   1   2   7 395.581 12.2824   3
   1   2   7 382.676 12.4853   4
   1   2   7 375.565 11.3889   5
   1   2   7 375.160 11.6366   5
  -2  -2  -7 18.9238 3.06400   4
  -2  -2  -7 17.5224 2.25871   5
  -2  -2  -7 19.4555 2.28964   5
  -2  -2  -7 14.8303 2.97977   2
  -2  -2  -7 18.1019 1.43623   1
  -2  -2  -7 16.2861 2.98484   3
   2   2   7 15.5071 1.47378   1
   2   2   7 19.8418 3.00193   2
   2   2   7 17.5573 3.27724   3
   2   2   7 15.8339 3.18855   4
   2   2   7 19.7685 2.72379   5
   2   2   7 17.1277 2.61721   5
  -3  -2  -7 57.2083 3.92270   5
  -3  -2  -7 63.1657 4.56726   3
  -3  -2  -7 63.8961 4.74727   2
  -3  -2  -7 70.6562 4.09608   5
  -3  -2  -7 64.3159 3.28384   1
   3   2   7 63.0173 3.32264   1
   3   2   7 62.5675 4.05406   5
   3   2   7 63.7785 4.09075   5
   3   2   7 65.4978 4.62496   4
   3   2   7 62.2705 4.61939   2
  -4  -2  -7 4.07526 1.79404   3
  -4  -2  -7 4.08713 1.34703   1
  -4  -2  -7 2.52602 1.50819   5
   4   2   7 4.16884 1.42246   1
   4   2   7 4.24170 1.80061   2
   4   2   7 4.81077 1.65776   4
   4   2   7 0.67878 1.97814   4
   4   2   7 4.13064 1.75548   5
   4   2   7 0.91715 1.82553   5
  -5  -2  -7 7.98966 2.33012   3
  -5  -2  -7 13.3217 3.66106   5
  -5  -2  -7 5.63422 1.66493   1
   5   2   7 5.49307 2.39847   5
   5   2   7 13.3431 3.97293   1
   5   2   7 7.74547 1.93735   4
   5   2   7 7.20874 2.32162   5
   5   2   7 9.55513 3.40794   2
  -6  -2  -7 106.659 6.92309   3
  -6  -2  -7 116.895 6.53549   1
  -6  -2  -7 121.542 7.01676   5
   6   2   7 115.858 6.61315   4
   6   2   7 114.044 7.18312   5
   6   2   7 115.126 7.43931   2
   6   2   7 100.334 8.90836   5
  -7  -2  -7 34.6082 5.79815   3
  -7  -2  -7 29.8774 4.92912   1
  -7  -2  -7 46.4093 6.47914   5
   7   2   7 23.3980 4.85564   4
   7   2   7 43.5965 6.54496   2
   7   2   7 31.1350 5.79509   5
  -8  -2  -7 8.45061 3.23849   1
  -8  -2  -7 6.34496 4.05262   5
  -8  -2  -7 6.97721 3.72879   3
   8   2   7 7.80991 3.05602   2
   8   2   7 8.25501 2.81652   4
   8   2   7 9.73780 3.63785   5
  -9  -2  -7 4.62812 4.83728   3
   9   2   7 0.04499 3.27651   4
   9   2   7 -4.2833 4.37866   2
   7  -3  -7 5.35130 3.53542   2
   7  -3  -7 -2.0127 3.34379   4
  -7   3   7 0.27053 3.10412   1
  -7   3   7 0.76545 2.96061   5
   6  -3  -7 1.78564 2.81983   2
   6  -3  -7 0.59791 2.72863   4
  -6   3   7 0.12277 2.16756   5
  -6   3   7 2.14840 2.37887   1
   5  -3  -7 41.3437 5.82095   4
  -5   3   7 49.4388 4.48989   5
  -5   3   7 37.3947 5.33717   5
  -5   3   7 45.7302 4.51520   1
   4  -3  -7 5.99681 2.19041   4
  -4   3   7 6.93669 1.93920   5
  -4   3   7 7.98103 2.76587   1
  -4   3   7 5.44033 1.63681   5
   3  -3  -7 9.14659 1.97912   3
   3  -3  -7 13.5858 3.55144   4
  -3   3   7 7.52920 2.12190   1
  -3   3   7 8.70049 2.29932   3
  -3   3   7 8.82945 2.25590   5
  -3   3   7 10.7885 2.50326   5
   2  -3  -7 140.731 7.08393   4
   2  -3  -7 120.244 3.98134   5
   2  -3  -7 131.957 5.28144   3
  -2   3   7 129.456 4.52270   1
  -2   3   7 130.600 4.54356   1
  -2   3   7 131.869 5.36126   5
  -2   3   7 128.239 5.31060   3
  -2   3   7 129.282 5.33175   5
   1  -3  -7 41.8423 2.19053   5
   1  -3  -7 38.8500 2.05735   5
   1  -3  -7 45.0603 3.36283   3
  -1   3   7 49.0017 3.55319   3
  -1   3   7 54.1962 4.14550   4
  -1   3   7 38.6381 2.93953   5
  -1   3   7 42.2101 3.94903   2
  -1   3   7 39.3321 3.99649   2
  -1   3   7 41.7489 2.89369   5
   0  -3  -7 867.072 21.7151   5
   0  -3  -7 823.374 21.6931   5
   0  -3  -7 848.126 24.4674   4
   0  -3  -7 840.408 23.4959   3
   0   3   7 868.123 22.8640   5
   0   3   7 826.183 24.1505   4
   0   3   7 859.554 22.5760   5
   0   3   7 876.942 23.5975   3
   0   3   7 887.127 24.6036   2
  -1  -3  -7 37.9501 2.54509   5
  -1  -3  -7 36.2672 2.25675   5
  -1  -3  -7 38.7870 3.61861   4
  -1  -3  -7 37.1119 3.39699   3
   1   3   7 37.2297 3.61262   3
   1   3   7 33.7116 2.65226   5
   1   3   7 39.9699 3.52613   4
   1   3   7 34.1402 2.80790   5
   1   3   7 35.5308 3.50207   2
  -2  -3  -7 69.7252 3.45065   5
  -2  -3  -7 63.9824 2.70402   1
  -2  -3  -7 57.0672 4.61424   2
  -2  -3  -7 62.4219 3.25968   5
  -2  -3  -7 63.5020 4.29738   3
   2   3   7 66.0806 2.75901   1
   2   3   7 68.6466 3.67153   5
   2   3   7 65.3456 3.72004   5
   2   3   7 70.7987 4.45757   3
   2   3   7 67.8215 4.47653   2
   2   3   7 61.0048 4.49433   4
  -3  -3  -7 52.8153 3.34110   5
  -3  -3  -7 55.7906 4.39702   2
  -3  -3  -7 54.8478 4.27377   3
  -3  -3  -7 53.6924 3.67696   5
   3   3   7 55.9306 4.32438   2
   3   3   7 56.8845 4.10301   5
   3   3   7 56.5977 3.91091   5
   3   3   7 55.9861 3.20641   1
   3   3   7 58.4432 5.30664   3
   3   3   7 49.8551 4.59880   4
  -4  -3  -7 22.6270 2.66712   1
  -4  -3  -7 21.9474 3.89372   5
  -4  -3  -7 17.3894 3.48619   3
   4   3   7 26.9970 3.50987   5
   4   3   7 18.5970 3.41673   4
   4   3   7 24.6594 3.71918   2
   4   3   7 29.8242 4.17398   4
   4   3   7 20.5467 3.22273   1
   4   3   7 19.8612 3.72202   5
  -5  -3  -7 127.189 6.48433   5
  -5  -3  -7 121.730 6.04197   1
  -5  -3  -7 136.130 7.24285   3
   5   3   7 125.659 6.59274   1
   5   3   7 133.530 7.23112   5
   5   3   7 129.874 6.98352   5
   5   3   7 126.631 6.72395   4
   5   3   7 122.044 7.27928   2
  -6  -3  -7 70.1993 5.03535   1
  -6  -3  -7 67.0900 5.88272   5
  -6  -3  -7 71.8481 6.13407   3
   6   3   7 77.6455 6.60753   5
   6   3   7 68.1951 6.16918   2
   6   3   7 79.1178 7.13393   5
   6   3   7 68.3590 5.49387   4
  -7  -3  -7 2.31062 2.69092   5
  -7  -3  -7 0.50179 2.82837   3
  -7  -3  -7 -1.4929 1.91485   1
   7   3   7 1.29239 3.06830   5
   7   3   7 -1.9837 2.29908   2
   7   3   7 -1.2447 2.09524   4
  -8  -3  -7 1.55296 2.70952   1
  -8  -3  -7 10.9445 4.12792   3
   8   3   7 4.31926 3.33401   2
   8   3   7 1.47136 3.43303   5
   8   3   7 7.59478 2.96913   4
  -9  -3  -7 5.87240 3.87499   1
  -9  -3  -7 4.04858 4.63245   3
   9   3   7 -8.2614 4.35384   5
   9   3   7 2.84674 4.66189   2
   9   3   7 -4.1779 3.35857   4
   7  -4  -7 5.16102 3.96228   2
  -7   4   7 1.10833 2.92080   5
  -7   4   7 3.59188 3.44607   1
   6  -4  -7 1.57990 2.73392   4
  -6   4   7 0.48967 2.34311   5
  -6   4   7 2.28895 2.50878   1
   5  -4  -7 232.012 10.7504   4
  -5   4   7 219.314 9.41512   5
  -5   4   7 228.569 9.29097   1
  -5   4   7 197.146 8.79681   5
   4  -4  -7 207.640 9.80922   4
  -4   4   7 206.269 7.90863   1
  -4   4   7 199.886 7.85905   5
  -4   4   7 194.689 7.72038   5
   3  -4  -7 36.6960 4.60957   4
  -3   4   7 40.6882 3.16003   1
  -3   4   7 39.1480 3.33445   5
  -3   4   7 41.8597 3.45929   5
  -3   4   7 39.9498 3.39768   1
  -3   4   7 40.0779 3.15058   3
   2  -4  -7 23.8507 3.61876   4
   2  -4  -7 20.8249 2.76115   3
  -2   4   7 18.6246 2.20005   1
  -2   4   7 18.8419 3.38565   1
  -2   4   7 20.9225 2.37988   5
  -2   4   7 23.3371 2.38961   5
  -2   4   7 20.8731 3.21170   3
   1  -4  -7 497.207 16.1141   4
   1  -4  -7 488.972 14.5974   3
  -1   4   7 498.728 14.0476   5
  -1   4   7 504.785 16.1649   2
  -1   4   7 490.357 13.7818   5
  -1   4   7 500.836 14.7081   3
  -1   4   7 506.531 13.2207   1
  -1   4   7 490.803 13.1666   1
   0  -4  -7 1261.23 35.1776   4
   0  -4  -7 1317.21 34.3201   3
   0   4   7 1311.01 33.1320   5
   0   4   7 1308.23 34.2304   3
   0   4   7 1304.25 32.8826   5
   0   4   7 1223.72 34.9153   4
   0   4   7 1348.08 35.4245   2
   0   4   7 1335.24 31.9766   1
   0   4   7 1213.08 34.7747   2
  -1  -4  -7 9.11396 2.95513   4
  -1  -4  -7 10.2057 2.84586   3
  -1  -4  -7 10.4247 1.54981   5
   1   4   7 11.4732 1.44280   1
   1   4   7 9.35418 2.92172   4
   1   4   7 7.55800 1.83507   2
   1   4   7 9.99117 2.99453   3
   1   4   7 12.0747 2.13641   5
   1   4   7 10.9224 1.99314   5
  -2  -4  -7 317.138 11.0122   3
  -2  -4  -7 318.686 9.02133   5
  -2  -4  -7 322.388 8.95594   1
  -2  -4  -7 289.068 8.89311   5
   2   4   7 311.049 9.89314   5
   2   4   7 319.676 9.76914   5
   2   4   7 289.773 10.9636   4
   2   4   7 318.775 11.2131   2
   2   4   7 312.157 10.9482   3
   2   4   7 296.198 8.87297   1
  -3  -4  -7 109.127 6.04862   3
  -3  -4  -7 109.570 4.57701   1
  -3  -4  -7 112.789 4.93402   5
   3   4   7 116.735 4.91035   1
   3   4   7 123.230 7.80449   4
   3   4   7 122.707 5.46371   5
   3   4   7 113.419 6.20052   2
  -4  -4  -7 370.969 11.6764   1
  -4  -4  -7 377.493 13.3869   3
  -4  -4  -7 380.857 11.8908   5
   4   4   7 383.668 12.4902   5
   4   4   7 390.895 13.4827   4
   4   4   7 384.611 12.5934   5
   4   4   7 387.156 11.9010   1
   4   4   7 374.033 13.3557   2
  -5  -4  -7 46.1986 3.90289   1
  -5  -4  -7 42.2163 4.93525   3
   5   4   7 32.0111 5.07096   1
   5   4   7 41.4719 4.86226   4
   5   4   7 42.2448 5.04187   5
   5   4   7 42.1372 5.06271   2
   5   4   7 40.9388 4.49887   5
  -6  -4  -7 3.88262 1.87287   1
  -6  -4  -7 5.61098 2.53271   3
  -6  -4  -7 6.25859 2.54595   5
   6   4   7 5.21467 2.37814   4
   6   4   7 14.6024 4.72715   2
   6   4   7 18.6524 6.16181   5
   6   4   7 6.38789 2.13289   5
  -7  -4  -7 6.14291 3.16832   5
  -7  -4  -7 7.40864 2.60100   1
  -7  -4  -7 1.19630 2.95633   3
   7   4   7 5.78409 2.78107   5
   7   4   7 5.69516 2.80876   4
   7   4   7 7.99768 3.26913   2
  -8  -4  -7 0.70832 3.43257   3
  -8  -4  -7 0.94861 2.97283   1
   8   4   7 1.48966 3.25656   2
   8   4   7 4.25635 3.39560   5
   8   4   7 -1.8377 2.47090   4
  -9  -4  -7 17.1942 4.51584   1
  -9  -4  -7 28.2335 9.13147   3
   9   4   7 31.1754 7.78276   4
   9   4   7 17.1397 5.18798   5
   9   4   7 34.9486 9.73022   2
   7  -5  -7 54.3942 9.35797   4
  -7   5   7 57.4628 8.38253   1
  -7   5   7 73.4062 7.40813   5
   6  -5  -7 25.7528 7.34420   4
  -6   5   7 28.6590 5.39069   5
  -6   5   7 24.0286 6.71494   1
   5  -5  -7 3.72153 2.67906   4
  -5   5   7 0.41600 1.95292   1
  -5   5   7 3.79021 1.97142   5
  -5   5   7 -0.1680 2.48017   5
   4  -5  -7 2.16590 2.27455   4
  -4   5   7 5.88472 2.57362   1
  -4   5   7 2.18787 2.08103   5
  -4   5   7 2.17772 1.51028   5
  -4   5   7 4.23060 1.84889   1
   3  -5  -7 113.213 6.88906   4
  -3   5   7 117.879 5.40350   3
  -3   5   7 115.617 5.10353   5
  -3   5   7 115.203 5.43279   1
  -3   5   7 115.189 5.63600   1
   2  -5  -7 82.7583 5.73343   4
   2  -5  -7 85.5274 4.59617   3
  -2   5   7 84.6573 4.05732   1
  -2   5   7 80.9323 4.92070   3
  -2   5   7 84.9959 3.89980   5
  -2   5   7 73.7263 4.93474   5
  -2   5   7 77.8765 4.20894   1
   1  -5  -7 409.844 12.8281   3
   1  -5  -7 409.306 14.0329   4
  -1   5   7 411.896 11.5628   1
  -1   5   7 404.276 12.7219   3
  -1   5   7 422.465 14.2099   2
  -1   5   7 359.909 12.5017   1
  -1   5   7 421.586 11.6323   5
   0  -5  -7 95.5728 5.80541   4
   0  -5  -7 94.2444 5.18243   3
   0   5   7 92.4142 3.83582   1
   0   5   7 89.6477 5.62734   3
   0   5   7 97.1630 3.94514   5
   0   5   7 99.1831 3.90512   1
   0   5   7 96.5684 3.96194   5
   0   5   7 94.6053 5.72337   2
  -1  -5  -7 103.626 5.58054   3
   1   5   7 104.536 5.66748   2
   1   5   7 103.506 4.11124   1
   1   5   7 98.9848 4.22184   5
   1   5   7 104.064 4.38080   5
   1   5   7 99.3040 5.94642   3
  -2  -5  -7 2.92276 1.66454   3
   2   5   7 4.16470 1.71076   2
   2   5   7 9.09296 2.23019   5
   2   5   7 7.28466 2.40672   5
   2   5   7 6.79139 2.10285   1
  -3  -5  -7 127.496 6.80059   3
  -3  -5  -7 128.019 5.26631   1
  -3  -5  -7 130.265 5.02541   5
   3   5   7 131.911 5.71698   5
   3   5   7 131.101 5.59182   1
   3   5   7 129.589 5.86127   5
   3   5   7 128.537 6.84553   4
   3   5   7 130.306 6.64463   2
  -4  -5  -7 -1.7286 1.76557   3
  -4  -5  -7 1.02367 1.53793   5
  -4  -5  -7 0.18186 1.23575   1
   4   5   7 -1.2303 1.14292   5
   4   5   7 2.03234 1.71883   5
   4   5   7 0.38373 1.63731   2
   4   5   7 1.60641 1.72657   4
   4   5   7 -0.4200 1.85078   1
  -5  -5  -7 58.3021 5.33086   3
  -5  -5  -7 60.9713 4.85399   5
  -5  -5  -7 58.4626 4.45433   1
   5   5   7 60.2143 5.81675   4
   5   5   7 59.1556 5.45419   5
   5   5   7 67.5509 5.94409   2
   5   5   7 58.2739 4.96762   5
   5   5   7 67.4647 6.83111   1
  -6  -5  -7 0.43369 3.64757   5
  -6  -5  -7 2.03856 1.71591   1
  -6  -5  -7 4.12658 2.63534   3
   6   5   7 4.95163 2.80444   5
   6   5   7 0.54941 2.17067   4
   6   5   7 -1.4761 1.89974   5
   6   5   7 0.18122 2.12395   2
  -7  -5  -7 43.2318 5.57224   1
  -7  -5  -7 51.4802 6.41892   3
   7   5   7 53.3604 7.01509   2
   7   5   7 51.0104 6.71082   4
   7   5   7 46.1957 6.51379   5
  -8  -5  -7 52.4434 7.51046   3
  -8  -5  -7 37.8410 6.51037   1
   8   5   7 46.1549 6.98924   4
   8   5   7 48.8755 7.86031   2
   8   5   7 49.5886 7.67387   5
  -9  -5  -7 -5.1192 3.57922   1
   9   5   7 7.27239 4.60977   2
   9   5   7 0.44050 4.32837   4
   9   5   7 7.35873 4.93273   5
   6  -6  -7 7.43762 3.72782   4
  -6   6   7 11.0626 3.46502   1
  -6   6   7 4.79509 2.46960   5
   5  -6  -7 21.5228 6.37708   4
  -5   6   7 17.0051 5.58533   5
  -5   6   7 26.4320 4.21028   5
  -5   6   7 28.5506 5.28656   1
   4  -6  -7 60.3232 6.46459   4
  -4   6   7 61.5551 4.14645   5
  -4   6   7 55.7914 4.52475   5
  -4   6   7 57.0089 4.95292   1
   3  -6  -7 18.3174 4.50380   4
  -3   6   7 15.9431 2.57234   5
  -3   6   7 8.87086 2.60263   5
  -3   6   7 14.5696 3.20840   1
  -3   6   7 18.6545 3.98574   1
  -3   6   7 15.4429 4.16753   3
   2  -6  -7 7.33047 2.22543   4
  -2   6   7 3.89218 2.48329   3
  -2   6   7 9.79496 1.91527   5
  -2   6   7 8.17760 2.59446   1
  -2   6   7 10.7202 2.20671   5
   1  -6  -7 36.7320 3.75566   3
   1  -6  -7 31.0818 4.21695   4
  -1   6   7 32.8201 3.25453   1
  -1   6   7 28.1587 4.47217   3
  -1   6   7 39.1517 2.41884   5
  -1   6   7 28.7186 4.06194   2
  -1   6   7 35.9695 3.11459   1
  -1   6   7 38.4410 2.48119   5
   0  -6  -7 169.845 7.48443   3
   0   6   7 170.797 7.97066   2
   0   6   7 174.091 5.59410   5
   0   6   7 175.711 6.23020   1
   0   6   7 158.247 7.61766   3
   0   6   7 174.526 5.75951   5
  -1  -6  -7 0.70089 1.62224   3
   1   6   7 3.52364 1.42065   1
   1   6   7 4.41277 1.72382   2
   1   6   7 6.51321 1.82147   5
   1   6   7 4.63465 1.12908   5
  -2  -6  -7 92.9048 4.43156   1
  -2  -6  -7 99.4458 5.85637   3
   2   6   7 97.4042 4.60223   1
   2   6   7 95.8024 5.80944   2
   2   6   7 97.6986 4.46974   5
   2   6   7 99.0348 4.49687   5
  -3  -6  -7 252.586 10.5035   3
  -3  -6  -7 258.371 7.41098   5
  -3  -6  -7 252.539 8.76507   1
   3   6   7 262.937 10.2982   2
   3   6   7 259.968 8.93156   5
   3   6   7 262.240 10.6882   4
   3   6   7 255.820 8.98768   5
   3   6   7 254.857 8.92867   1
  -4  -6  -7 418.122 12.0978   5
  -4  -6  -7 409.442 12.9792   1
  -4  -6  -7 416.039 14.7586   3
   4   6   7 411.840 14.3741   2
   4   6   7 420.712 14.9341   4
   4   6   7 376.439 13.1168   1
   4   6   7 406.269 12.9415   5
   4   6   7 396.808 13.1075   5
  -5  -6  -7 12.5272 4.10658   5
  -5  -6  -7 18.9099 5.00201   3
   5   6   7 23.0040 4.86956   2
   5   6   7 19.9684 3.88243   5
   5   6   7 22.2838 4.59879   5
  -6  -6  -7 34.8480 5.58664   5
  -6  -6  -7 33.1134 5.65372   3
  -6  -6  -7 42.6294 5.45110   1
   6   6   7 37.7901 5.91550   2
   6   6   7 50.1174 6.27021   4
   6   6   7 46.2090 6.95183   5
   6   6   7 40.0027 5.38183   5
  -7  -6  -7 0.50507 3.54749   3
  -7  -6  -7 -3.3791 2.35466   1
   7   6   7 2.60274 3.03357   4
   7   6   7 2.10829 2.96641   5
   7   6   7 -0.5128 2.85855   2
  -8  -6  -7 32.7211 7.07033   1
  -8  -6  -7 18.9330 4.67416   3
   8   6   7 20.5408 7.23715   2
   8   6   7 16.1631 4.68039   5
   8   6   7 25.8987 6.81170   4
  -9  -6  -7 43.5093 8.91327   1
  -9  -6  -7 28.9564 5.64962   3
   9   6   7 42.5884 9.82386   4
   9   6   7 17.9046 5.06474   5
   9   6   7 33.7878 9.55027   2
   6  -7  -7 9.58196 4.68072   4
  -6   7   7 9.16323 2.75902   5
  -6   7   7 8.89868 4.16818   1
   5  -7  -7 0.18077 3.32647   4
  -5   7   7 4.78407 2.22710   5
  -5   7   7 3.74011 3.01703   1
   4  -7  -7 -2.3094 2.32987   4
  -4   7   7 1.42308 1.91619   5
  -4   7   7 -0.7050 1.46300   5
  -4   7   7 4.07815 1.85999   3
  -4   7   7 3.09455 2.46853   1
   3  -7  -7 2.13505 2.42544   4
  -3   7   7 -0.5062 1.70108   1
  -3   7   7 1.13457 1.23879   5
  -3   7   7 -1.2647 1.58178   3
  -3   7   7 1.56040 1.41270   5
   2  -7  -7 1.55300 2.21047   4
  -2   7   7 3.49233 2.67921   3
  -2   7   7 2.22170 0.87191   5
  -2   7   7 2.79587 1.75572   1
  -2   7   7 2.18145 1.13853   5
  -2   7   7 -2.4688 2.04178   1
  -1   7   7 17.8568 1.96309   5
  -1   7   7 17.3412 5.19617   3
  -1   7   7 12.0939 4.03440   2
  -1   7   7 14.5706 3.05597   1
  -1   7   7 15.1318 1.78086   5
   0  -7  -7 12.2304 3.32617   3
   0   7   7 13.9388 1.88887   5
   0   7   7 14.4195 3.89920   2
   0   7   7 15.5222 3.08627   1
   0   7   7 11.1087 1.80915   5
  -1  -7  -7 82.8487 5.49920   3
   1   7   7 85.5723 3.80215   5
   1   7   7 77.6981 4.61911   1
   1   7   7 79.2258 3.65123   5
   1   7   7 81.7498 5.37435   2
  -2  -7  -7 8.34741 2.52299   1
  -2  -7  -7 4.41956 2.05409   3
   2   7   7 4.43367 2.02592   1
   2   7   7 9.85220 3.31144   2
   2   7   7 4.34103 1.40841   5
   2   7   7 2.13279 1.92840   4
   2   7   7 3.34527 1.22292   5
  -3  -7  -7 53.7428 4.04871   1
  -3  -7  -7 54.0162 5.40364   3
   3   7   7 57.0706 4.12591   5
   3   7   7 56.6053 5.05082   2
   3   7   7 50.1927 5.26923   4
   3   7   7 48.3002 4.20897   5
   3   7   7 49.9896 4.97001   1
  -4  -7  -7 52.7010 4.38191   1
  -4  -7  -7 56.1493 3.60875   5
  -4  -7  -7 41.4915 5.24496   3
   4   7   7 51.6879 5.28916   2
   4   7   7 45.4692 4.47735   5
   4   7   7 55.2256 4.60207   5
   4   7   7 56.7220 5.74409   4
  -5  -7  -7 103.926 6.14924   5
  -5  -7  -7 104.417 6.33932   1
  -5  -7  -7 104.398 7.52860   3
   5   7   7 106.094 6.74748   5
   5   7   7 122.889 7.62503   2
   5   7   7 105.888 6.46598   5
   5   7   7 108.188 7.53855   4
  -6  -7  -7 3.83341 3.39771   3
  -6  -7  -7 1.83592 2.32993   1
   6   7   7 -0.3623 2.49411   5
   6   7   7 2.59418 2.79614   4
   6   7   7 1.92994 2.71232   2
  -7  -7  -7 2.36658 3.12040   1
  -7  -7  -7 -3.0078 3.24745   3
   7   7   7 -1.6776 2.78220   5
   7   7   7 -0.4266 3.09451   2
   7   7   7 -0.2819 3.19535   4
  -8  -7  -7 -1.2904 3.67789   1
  -8  -7  -7 1.93801 4.47586   3
   8   7   7 -2.0511 3.75947   2
   8   7   7 3.03800 4.06439   5
   8   7   7 3.62064 3.47557   4
  -5   8   7 4.16213 3.30381   1
  -5   8   7 2.40038 2.28245   5
  -4   8   7 0.68774 2.49475   1
  -4   8   7 -1.7345 1.95802   5
  -4   8   7 1.81306 1.64791   5
  -3   8   7 2.64576 2.29248   3
  -3   8   7 2.99708 2.03443   1
  -3   8   7 1.30125 1.22802   5
  -3   8   7 3.11881 1.53456   5
  -2   8   7 3.70368 1.98321   1
  -1   8   7 58.6671 2.66597   5
  -1   8   7 61.9679 5.97396   2
  -1   8   7 63.1037 4.84973   1
  -1   8   7 63.8251 5.62277   1
   0   8   7 64.9900 2.87529   5
   0   8   7 62.3978 5.50220   2
   0   8   7 59.3972 2.97664   5
   0   8   7 58.2355 5.20140   1
  -1  -8  -7 1.94388 2.30360   3
   1   8   7 -3.8610 2.04695   1
   1   8   7 -1.1269 1.49087   2
   1   8   7 -0.7578 1.04597   5
   1   8   7 -0.5178 1.05000   5
  -2  -8  -7 33.9702 5.03137   3
  -2  -8  -7 34.0910 3.88006   1
   2   8   7 32.7826 3.25075   5
   2   8   7 25.4016 5.08750   1
   2   8   7 30.3659 4.16357   2
   2   8   7 32.3387 3.24543   5
   2   8   7 33.1496 5.36960   4
  -3  -8  -7 1.50786 2.14136   3
  -3  -8  -7 4.35329 1.94156   1
   3   8   7 4.25543 2.08979   2
   3   8   7 2.59593 1.59948   5
   3   8   7 2.23686 1.77795   5
   3   8   7 1.61690 2.04581   4
  -4  -8  -7 43.7691 4.72295   1
  -4  -8  -7 57.2749 5.65822   3
   4   8   7 42.5542 4.24831   5
   4   8   7 43.8807 5.05470   5
   4   8   7 49.4386 5.39602   2
   4   8   7 48.7643 6.38982   4
  -5  -8  -7 5.53337 2.31727   1
  -5  -8  -7 10.3840 3.28201   3
   5   8   7 8.39371 3.14275   4
   5   8   7 7.69075 2.48068   5
   5   8   7 5.91494 2.85076   5
   5   8   7 22.4820 5.69396   2
  -6  -8  -7 3.46847 2.39774   1
  -6  -8  -7 4.63604 3.29141   3
   6   8   7 0.64644 2.71260   4
   6   8   7 1.92990 2.79279   2
   6   8   7 2.44013 2.29125   5
  -7  -8  -7 2.69401 3.75955   3
  -7  -8  -7 -0.1074 2.82430   1
   7   8   7 0.53298 3.64208   2
   7   8   7 -3.9079 3.16397   4
   7   8   7 -3.6085 3.02051   5
  -8  -8  -7 -0.3884 4.98541   3
  -8  -8  -7 4.25618 3.94207   1
   8   8   7 1.86041 4.06243   4
   8   8   7 3.40836 4.33258   2
   8   8   7 -2.2004 4.51136   5
  -4   9   7 6.68451 2.41710   5
  -4   9   7 7.13465 1.72340   5
  -4   9   7 18.8593 5.98489   1
  -3   9   7 2.05461 2.49647   1
  -3   9   7 1.30976 2.64658   3
  -2   9   7 23.1610 4.67492   3
  -2   9   7 14.0285 4.64842   1
  -1   9   7 22.7502 3.99402   1
  -1   9   7 24.1032 5.01315   2
   0   9   7 44.3463 5.32550   2
   1   9   7 22.0172 4.60915   2
   1   9   7 19.8285 2.69262   5
   1   9   7 27.0643 5.39592   4
   1   9   7 23.2554 2.57502   5
  -2  -9  -7 8.10012 2.36260   1
   2   9   7 5.49896 2.64822   4
   2   9   7 12.3311 2.97522   5
   2   9   7 14.3896 2.91401   5
   2   9   7 9.89838 2.54545   2
  -3  -9  -7 24.2261 4.28543   1
   3   9   7 23.1377 3.51704   5
   3   9   7 14.7339 3.69074   5
   3   9   7 27.3331 5.73380   4
   3   9   7 15.6225 4.40804   2
  -4  -9  -7 21.5950 5.70819   3
  -4  -9  -7 7.97596 2.66802   1
   4   9   7 10.3675 2.15163   5
   4   9   7 9.11129 3.41987   4
   4   9   7 10.8938 2.75508   2
   4   9   7 17.6488 5.09490   5
  -5  -9  -7 167.004 10.0088   3
  -5  -9  -7 166.428 8.70123   1
   5   9   7 153.667 9.96935   4
   5   9   7 174.919 9.71511   2
   5   9   7 153.982 7.86273   5
  -6  -9  -7 8.63387 3.76100   3
  -6  -9  -7 9.71009 3.23967   1
   6   9   7 11.4119 3.56270   2
   6   9   7 7.56343 3.84373   4
   6   9   7 5.76177 2.86686   5
  -7  -9  -7 5.33254 4.81571   3
  -7  -9  -7 3.30222 3.75858   1
   7   9   7 3.89063 4.00497   2
   7   9   7 -4.2983 3.73853   4
   7   9   7 -1.7358 3.41669   5
  -4  10   7 8.19526 3.37854   1
  -3  10   7 36.2644 6.44625   3
  -3  10   7 29.1015 6.21494   1
  -2  10   7 42.8970 7.06570   2
  -2  10   7 53.0367 6.66681   1
  -2  10   7 55.5439 6.24941   3
  -1  10   7 29.9562 7.17037   4
  -1  10   7 22.4700 6.36538   2
  -1  10   7 14.0485 2.89178   1
   0  10   7 42.2734 5.96249   2
   0  10   7 44.7174 7.24592   4
   1  10   7 3.32966 1.51555   5
   1  10   7 7.41801 3.11504   4
   1  10   7 5.61411 1.50433   5
   1  10   7 6.27678 2.14638   2
  -2 -10  -7 21.5096 4.80042   1
   2  10   7 37.9460 7.06217   4
   2  10   7 33.9630 5.06958   2
   2  10   7 25.6512 3.43657   5
   2  10   7 27.8875 3.82231   5
  -3 -10  -7 12.8411 4.50555   1
   3  10   7 4.47641 2.34735   5
   3  10   7 5.74110 2.57908   2
   3  10   7 2.48745 1.85551   5
   3  10   7 2.07429 3.00215   4
  -4 -10  -7 32.9249 6.26006   1
   4  10   7 33.8028 5.75512   5
   4  10   7 22.5547 4.66896   5
   4  10   7 34.1751 5.83748   2
   4  10   7 49.6677 7.58373   4
  -5 -10  -7 -0.1077 2.90667   1
   5  10   7 0.86413 2.93289   2
   5  10   7 2.47074 3.40345   4
   5  10   7 2.04298 2.82543   5
  -6 -10  -7 -1.8926 3.02550   1
   6  10   7 3.35680 3.28409   5
   6  10   7 -0.4762 3.33169   2
   6  10   7 4.66334 3.87282   4
  -7 -10  -7 -0.7894 3.82802   1
   7  10   7 2.54459 4.86637   4
   7  10   7 7.09481 4.39331   2
   7  10   7 -6.3404 3.65261   5
  -3  11   7 5.14852 5.96648   3
  -3  11   7 -0.4210 3.40346   1
  -3  11   7 -3.7223 4.77136   4
  -2  11   7 0.90850 3.49934   1
  -2  11   7 -2.3219 3.41836   3
  -2  11   7 2.88459 3.66260   2
  -2  11   7 2.57005 4.63229   4
  -1  11   7 68.4014 8.67443   4
  -1  11   7 64.9200 6.62041   1
  -1  11   7 47.7142 6.79247   3
  -1  11   7 65.3992 8.44660   2
   0  11   7 29.8544 6.31703   2
   0  11   7 18.1808 4.23860   4
   1  11   7 -0.9582 2.42825   2
   1  11   7 1.01927 1.51227   5
   1  11   7 3.14447 3.57888   4
   2  11   7 2.36674 3.87668   4
   2  11   7 5.03081 2.96000   2
   2  11   7 2.29336 1.78284   5
   2  11   7 1.57250 1.96922   5
  -3 -11  -7 5.39612 3.19117   1
   3  11   7 2.16381 3.30027   4
   3  11   7 1.75979 2.40651   5
   3  11   7 0.09932 2.68531   2
   4  11   7 48.0984 5.32562   5
   4  11   7 48.4529 6.67997   2
   4  11   7 55.7583 8.51757   4
  -5 -11  -7 35.0895 7.34299   1
   5  11   7 36.6407 7.79238   2
   5  11   7 28.2126 6.00010   5
  -6 -11  -7 1.50760 4.13802   1
   6  11   7 1.58974 3.47234   5
   6  11   7 5.53157 4.46444   2
  -1  12   7 5.44743 4.86564   4
  -1  12   7 -4.7001 3.89192   3
  -1  12   7 2.02877 3.83996   2
  -1  12   7 4.29530 3.70968   1
   0  12   7 53.4844 8.16064   3
   0  12   7 34.9243 7.41501   2
   0  12   7 38.5807 9.66680   4
   1  12   7 10.2308 3.52209   2
   1  12   7 -1.4446 3.98543   4
   2  12   7 27.0837 4.83019   5
   2  12   7 34.7688 4.63296   5
   2  12   7 31.1300 8.57923   4
   2  12   7 31.9089 6.72505   2
  -3 -12  -7 22.0791 4.35260   1
   3  12   7 18.0184 4.68405   4
   3  12   7 19.2866 6.40860   2
   3  12   7 22.2798 5.12472   5
  -4 -12  -7 33.3589 7.58390   1
   4  12   7 26.3970 7.77639   2
   4  12   7 15.6921 4.72020   4
   4  12   7 16.2633 5.37274   5
  -5 -12  -7 11.2542 4.63264   1
   5  12   7 31.1555 10.0115   4
   5  12   7 10.7712 3.27478   5
   2  13   7 119.587 11.0600   3
   2  13   7 91.0391 6.09368   5
   2  13   7 112.663 11.7528   4
   1  10  -8 10.2703 5.81693   3
   0  10  -8 7.05920 5.83188   3
   0  10  -8 1.20265 4.19574   5
   3   9  -8 8.74426 5.22421   4
   3   9  -8 -7.6584 4.51049   3
   3   9  -8 10.0916 5.23109   5
  -3  -9   8 -0.4677 4.11667   1
   2   9  -8 0.77923 4.38481   3
   2   9  -8 6.09628 4.37988   4
   1   9  -8 6.86407 4.60957   3
   1   9  -8 3.82212 4.67004   5
   1   9  -8 3.47615 4.15127   4
   0   9  -8 -2.7382 3.71074   4
   0   9  -8 -7.4451 3.43662   5
   0   9  -8 7.26720 4.85628   3
  -1   9  -8 15.2016 5.62956   3
  -1   9  -8 7.96034 4.09783   1
  -1   9  -8 4.50154 4.05312   5
  -2   9  -8 3.53719 3.80988   5
  -2   9  -8 -1.1438 4.61708   3
  -2   9  -8 -3.7136 3.85427   1
  -3   9  -8 -8.0381 5.10753   3
  -3   9  -8 1.74079 4.38708   5
   4   8  -8 8.95776 4.97586   3
   4   8  -8 7.08728 4.97014   5
   4   8  -8 0.06161 4.70648   4
  -4  -8   8 26.1406 7.81294   1
   3   8  -8 2.72293 4.26159   4
   3   8  -8 2.74753 4.02643   3
   3   8  -8 2.88618 4.15252   5
  -3  -8   8 -0.2515 3.62550   1
   2   8  -8 10.0077 4.06065   3
   2   8  -8 6.31529 3.79748   4
   2   8  -8 4.70647 3.77223   5
   1   8  -8 1.07465 3.23314   4
   1   8  -8 8.07701 4.05629   3
   1   8  -8 5.03425 3.71434   5
   0   8  -8 10.1370 3.65226   4
   0   8  -8 11.5395 4.06136   3
   0   8  -8 4.17803 3.33624   5
  -1   8  -8 3.69884 2.92777   5
  -1   8  -8 -0.1611 2.85575   4
  -1   8  -8 -1.9244 2.90745   1
  -1   8  -8 1.94731 4.21913   3
  -2   8  -8 1.27820 3.39260   5
  -2   8  -8 -1.1253 3.14889   1
  -2   8  -8 1.80632 4.13708   3
   2  -8   8 3.57138 2.99036   2
  -3   8  -8 3.16978 3.30449   1
  -3   8  -8 8.10775 3.82157   5
  -3   8  -8 11.3658 4.80827   3
   3  -8   8 8.65997 3.26843   2
  -4   8  -8 3.70204 3.80385   1
  -4   8  -8 1.63283 4.54817   3
   5   7  -8 8.78407 4.89112   3
   5   7  -8 7.88144 4.75495   4
  -5  -7   8 2.49401 3.76499   1
   4   7  -8 12.0792 4.10844   5
   4   7  -8 12.7374 4.27229   4
   4   7  -8 24.5343 7.61019   3
  -4  -7   8 8.42508 3.50677   1
   3   7  -8 -0.3967 3.33837   4
   3   7  -8 20.0300 6.89159   3
   3   7  -8 -2.2113 3.03299   5
  -3  -7   8 4.87656 3.02793   1
  -3  -7   8 -3.4459 3.85113   5
   2   7  -8 55.0267 7.14728   3
   2   7  -8 46.5026 7.07179   4
  -2  -7   8 47.7713 7.48034   5
  -2  -7   8 36.8792 5.46088   1
   1   7  -8 39.3338 6.22985   4
   1   7  -8 41.5090 6.75275   5
   1   7  -8 59.4679 7.18169   3
  -1  -7   8 37.4112 5.07426   2
  -1  -7   8 37.2371 6.89526   5
   0   7  -8 19.5164 6.08614   4
   0   7  -8 19.4247 5.81078   5
   0   7  -8 19.0985 6.05784   3
   0  -7   8 15.6757 4.06790   2
   0  -7   8 22.2435 6.19224   5
  -1   7  -8 -1.3538 2.48069   1
  -1   7  -8 2.56560 3.02787   5
  -1   7  -8 4.19831 3.35246   3
  -1   7  -8 -3.7361 2.35895   4
   1  -7   8 -1.2708 2.25514   2
  -2   7  -8 -1.6135 2.37534   5
  -2   7  -8 0.46498 3.60164   3
  -2   7  -8 -0.1749 2.55913   1
  -2   7  -8 -0.6317 1.93642   4
   2  -7   8 1.89317 2.41218   2
  -3   7  -8 -4.1715 3.44478   3
  -3   7  -8 1.60484 2.88942   1
  -3   7  -8 0.07915 3.03508   5
   3  -7   8 -0.2776 2.95849   2
  -4   7  -8 35.4077 6.94944   1
  -4   7  -8 38.2985 7.92601   3
   4  -7   8 21.5091 4.05370   2
  -5   7  -8 5.85992 4.56599   5
  -5   7  -8 5.36926 4.55791   3
  -5   7  -8 -1.7474 3.27411   1
   5  -7   8 2.32892 3.89788   2
   6   6  -8 1.88467 4.94153   4
  -6  -6   8 4.87980 4.25395   1
   5   6  -8 0.58662 3.73087   3
   5   6  -8 4.76524 4.24749   4
  -5  -6   8 2.52072 3.04951   1
  -5  -6   8 7.73144 4.82440   5
   4   6  -8 2.86761 3.45257   4
   4   6  -8 3.19744 3.68958   3
   4   6  -8 -0.0634 2.90968   5
  -4  -6   8 6.52779 2.98980   1
  -4  -6   8 -0.2170 2.30373   2
  -4  -6   8 9.59224 4.16036   5
   3   6  -8 1.30204 2.77513   4
   3   6  -8 2.61145 3.16441   5
   3   6  -8 -0.1219 2.97147   3
  -3  -6   8 -5.1016 2.95741   5
  -3  -6   8 2.02104 2.25515   2
  -3  -6   8 4.94114 2.47121   1
   2   6  -8 26.7645 6.44069   4
   2   6  -8 26.2493 5.71470   3
   2   6  -8 16.9523 3.08737   5
  -2  -6   8 28.0567 6.64789   5
  -2  -6   8 22.9920 4.44052   1
  -2  -6   8 18.5996 4.06997   2
   1   6  -8 38.4770 5.78054   4
   1   6  -8 23.9018 5.52204   3
   1   6  -8 23.9591 5.49035   5
  -1  -6   8 25.5983 4.05244   2
  -1  -6   8 32.6453 5.99978   5
   0   6  -8 45.5151 7.17414   5
   0   6  -8 51.4282 5.84917   5
   0   6  -8 42.3557 5.58940   4
   0   6  -8 47.5680 6.18607   3
   0  -6   8 46.3076 4.38532   2
   0  -6   8 35.8596 7.57865   5
  -1   6  -8 7.52647 2.39414   4
  -1   6  -8 12.5173 3.21833   3
  -1   6  -8 11.7618 3.33781   5
  -1   6  -8 21.2631 6.52222   5
  -1   6  -8 8.05759 2.39291   1
   1  -6   8 2.01077 3.74909   4
   1  -6   8 9.53772 2.34852   2
   1  -6   8 19.3137 4.64502   5
  -2   6  -8 81.4359 5.14124   4
  -2   6  -8 78.5158 6.58863   5
  -2   6  -8 80.1264 7.18517   3
  -2   6  -8 76.3632 6.35799   1
   2  -6   8 75.8468 5.76933   2
   2  -6   8 77.7965 7.38520   5
  -3   6  -8 2.85318 3.03226   5
  -3   6  -8 3.45944 3.38923   3
  -3   6  -8 1.60990 2.54911   1
   3  -6   8 3.23231 2.64599   2
  -4   6  -8 5.24140 3.24244   5
  -4   6  -8 4.36110 2.86023   1
   4  -6   8 3.00276 2.66641   2
  -5   6  -8 10.2876 4.48761   3
  -5   6  -8 9.29047 3.45725   1
  -5   6  -8 11.5832 3.79115   5
   5  -6   8 8.05449 3.89467   2
  -6   6  -8 5.27086 4.52936   5
  -6   6  -8 8.79768 4.57099   1
  -6   6  -8 -3.6702 4.21320   3
   6  -6   8 3.36623 4.41635   2
   6   5  -8 2.83399 4.04725   4
  -6  -5   8 4.50287 3.39569   1
  -6  -5   8 6.07564 3.66584   2
  -6  -5   8 42.9530 11.2587   5
   5   5  -8 12.5962 3.71556   3
   5   5  -8 8.64935 3.86413   4
  -5  -5   8 9.61861 3.14208   1
  -5  -5   8 11.0852 4.35584   5
  -5  -5   8 5.89392 3.12485   2
   4   5  -8 74.6888 7.72821   4
   4   5  -8 85.0128 7.98851   5
   4   5  -8 76.1739 6.68836   3
  -4  -5   8 83.8931 8.43662   5
  -4  -5   8 87.2701 6.30251   1
  -4  -5   8 69.1292 5.75692   2
   3   5  -8 9.25766 2.85717   4
   3   5  -8 8.21842 2.76841   5
   3   5  -8 15.3633 5.02181   3
  -3  -5   8 8.92302 2.43346   1
  -3  -5   8 4.79994 2.68240   5
  -3  -5   8 7.94897 2.29820   2
   2   5  -8 36.0197 6.01436   1
   2   5  -8 36.2039 5.08914   5
   2   5  -8 54.7582 5.64485   3
   2   5  -8 51.1891 5.91236   4
  -2  -5   8 47.3138 4.25306   1
  -2  -5   8 49.9195 4.45887   2
  -2  -5   8 54.6282 5.68022   2
  -2  -5   8 52.0548 6.46457   5
   1   5  -8 11.1177 2.96965   3
   1   5  -8 9.57524 2.75584   5
   1   5  -8 7.59302 2.37911   4
   1   5  -8 8.39790 2.67912   1
  -1  -5   8 4.52742 2.71689   2
  -1  -5   8 6.45433 1.83041   2
  -1  -5   8 6.66456 2.07283   5
   0   5  -8 1.16376 2.35801   3
   0   5  -8 -0.3227 2.12495   4
   0   5  -8 13.5578 4.50613   1
   0   5  -8 2.45199 3.01777   5
   0   5  -8 1.72231 1.86314   5
   0  -5   8 1.36030 2.12148   5
   0  -5   8 -0.8499 1.57496   2
  -1   5  -8 3.96331 2.69381   1
  -1   5  -8 6.58248 2.48593   5
  -1   5  -8 9.12343 2.50391   4
  -1   5  -8 9.63374 3.04450   3
  -1   5  -8 10.6775 3.74034   1
  -1   5  -8 20.2913 5.20169   5
   1  -5   8 11.4566 2.97107   4
   1  -5   8 6.98170 2.21394   2
  -2   5  -8 37.8711 5.17203   3
  -2   5  -8 55.3092 5.88664   5
  -2   5  -8 38.4974 4.51377   1
  -2   5  -8 42.8917 4.19479   4
  -2   5  -8 33.4166 6.98014   5
   2  -5   8 43.0882 5.36667   5
   2  -5   8 38.8143 4.92153   2
   2  -5   8 41.2566 5.91528   4
  -3   5  -8 2.12213 2.20412   1
  -3   5  -8 2.96933 3.76358   5
  -3   5  -8 5.74634 2.81539   3
  -3   5  -8 3.77111 2.95209   5
   3  -5   8 4.79713 2.34184   2
   3  -5   8 -0.0444 2.68289   5
  -4   5  -8 11.3268 2.93670   1
  -4   5  -8 24.2740 6.03713   3
  -4   5  -8 15.1266 3.26359   5
   4  -5   8 18.0597 5.54113   2
   4  -5   8 12.3363 3.79136   5
  -5   5  -8 10.9496 3.65978   3
  -5   5  -8 10.9384 3.24514   1
  -5   5  -8 10.5044 3.24067   5
   5  -5   8 18.1431 6.17653   2
  -6   5  -8 6.62766 4.25750   3
  -6   5  -8 4.48588 3.60934   5
  -6   5  -8 5.42161 3.67568   1
   6  -5   8 -0.4159 3.76935   2
   6   4  -8 5.54959 3.92306   4
  -6  -4   8 -2.8017 2.98719   1
  -6  -4   8 3.99380 4.71982   5
   5   4  -8 -0.4162 2.82150   3
   5   4  -8 7.01556 3.31401   4
  -5  -4   8 3.36722 2.89821   2
  -5  -4   8 5.34424 2.45001   1
  -5  -4   8 25.9369 7.83110   5
   4   4  -8 52.4056 6.74276   4
   4   4  -8 39.8217 5.21047   3
   4   4  -8 34.8716 5.93993   5
  -4  -4   8 47.6701 4.86390   1
  -4  -4   8 50.5921 6.91887   5
  -4  -4   8 34.0079 5.24281   2
   3   4  -8 -0.1921 2.27498   3
   3   4  -8 1.22528 2.58753   4
   3   4  -8 -0.5278 2.72615   1
   3   4  -8 -1.5286 1.98933   5
  -3  -4   8 1.47925 2.30576   5
  -3  -4   8 -0.3344 1.72099   2
  -3  -4   8 2.45919 1.72314   1
  -3  -4   8 2.60356 2.93244   2
   2   4  -8 51.8244 5.64636   4
   2   4  -8 48.2406 5.02516   1
   2   4  -8 49.4711 5.31212   3
   2   4  -8 39.8493 4.70983   5
  -2  -4   8 37.0949 7.04283   5
  -2  -4   8 46.7111 4.31296   2
  -2  -4   8 49.9009 5.38758   5
  -2  -4   8 55.4778 3.93288   1
  -2  -4   8 43.1007 5.79458   2
   1   4  -8 14.0732 4.05271   3
   1   4  -8 17.1160 4.34463   4
   1   4  -8 18.4989 4.33190   5
   1   4  -8 13.9345 3.93358   1
  -1  -4   8 9.75959 2.38307   5
  -1  -4   8 17.2165 4.63786   2
  -1  -4   8 14.5696 3.71554   2
  -1  -4   8 27.2324 5.36216   5
   0   4  -8 3.03509 1.99630   1
   0   4  -8 7.05648 2.55383   5
   0   4  -8 6.73282 2.18216   4
   0   4  -8 3.49895 1.61827   5
   0   4  -8 4.15761 2.25576   3
   0  -4   8 3.02911 1.58231   5
   0  -4   8 5.73847 2.02048   2
  -1   4  -8 58.1816 4.97944   5
  -1   4  -8 70.8308 5.19944   1
  -1   4  -8 67.8951 4.28503   1
  -1   4  -8 61.5587 6.07655   5
  -1   4  -8 67.3457 5.00851   4
  -1   4  -8 64.9697 5.51229   3
   1  -4   8 70.1642 5.86077   4
   1  -4   8 59.6784 5.52383   5
   1  -4   8 65.4716 4.96190   2
  -2   4  -8 114.492 7.35475   5
  -2   4  -8 117.578 5.85096   1
  -2   4  -8 113.903 7.04091   3
  -2   4  -8 115.072 6.73359   5
  -2   4  -8 123.447 5.90918   4
  -2   4  -8 113.685 6.61773   1
   2  -4   8 121.706 6.78824   2
   2  -4   8 122.515 6.63564   4
  -3   4  -8 31.3820 5.01372   5
  -3   4  -8 28.4632 3.45103   4
  -3   4  -8 20.2153 4.75677   3
  -3   4  -8 31.0215 4.20279   1
  -3   4  -8 32.5745 5.98831   5
   3  -4   8 28.7928 4.65739   2
   3  -4   8 29.1610 4.63452   4
  -4   4  -8 87.0317 5.88465   1
  -4   4  -8 86.2579 7.06535   5
  -4   4  -8 91.8844 7.09147   3
  -4   4  -8 71.2238 9.19465   5
   4  -4   8 85.0014 7.19006   5
   4  -4   8 80.7251 6.68178   2
  -5   4  -8 7.59518 3.01019   1
  -5   4  -8 10.5874 3.18795   5
  -5   4  -8 -2.0162 2.60520   3
   5  -4   8 3.98958 3.06400   2
   5  -4   8 2.79971 3.23982   5
  -6   4  -8 5.51828 4.14048   3
  -6   4  -8 -1.1471 2.96346   5
  -6   4  -8 4.35369 3.12119   1
   6  -4   8 4.00918 2.96699   2
  -7   4  -8 13.8359 4.44540   1
  -7   4  -8 5.14540 4.29988   5
  -7   4  -8 7.86040 4.70468   3
   7  -4   8 8.80125 4.79392   2
   7   3  -8 -0.9791 4.07692   4
  -7  -3   8 4.31321 3.78685   1
  -7  -3   8 3.27044 4.75809   5
   6   3  -8 8.06520 4.06866   4
  -6  -3   8 8.38620 3.91655   5
  -6  -3   8 10.2462 3.01062   1
   5   3  -8 -1.3053 2.38406   3
   5   3  -8 -2.2283 2.83245   4
  -5  -3   8 -0.9198 1.99258   1
  -5  -3   8 -0.4490 3.03124   5
   4   3  -8 -1.1410 2.38626   5
   4   3  -8 2.88318 2.46904   4
   4   3  -8 1.61939 2.25145   3
   4   3  -8 3.77158 2.80192   1
  -4  -3   8 5.80630 2.43148   2
  -4  -3   8 7.08206 2.87167   5
  -4  -3   8 -6.4647 4.49267   5
  -4  -3   8 2.44365 1.64989   1
   3   3  -8 1.20512 2.39416   1
   3   3  -8 4.42324 2.30829   4
   3   3  -8 7.66386 2.29144   3
   3   3  -8 4.96124 2.17822   5
  -3  -3   8 4.03883 3.28931   5
  -3  -3   8 5.83689 3.27373   3
  -3  -3   8 4.33188 2.10038   2
  -3  -3   8 6.61907 2.16910   5
  -3  -3   8 4.57486 1.52973   1
   2   3  -8 37.8090 4.63433   5
   2   3  -8 39.7123 4.85383   4
   2   3  -8 34.4907 3.91621   1
   2   3  -8 38.7235 4.50820   3
  -2  -3   8 34.0248 5.26692   2
  -2  -3   8 36.7162 4.02397   2
  -2  -3   8 46.0067 5.75220   5
  -2  -3   8 44.4137 3.14277   1
  -2  -3   8 38.7033 4.63797   5
   1   3  -8 38.2135 4.67418   4
   1   3  -8 35.1332 4.34142   3
   1   3  -8 37.8240 3.44533   1
  -1  -3   8 42.3116 4.99464   2
  -1  -3   8 30.2492 4.08738   5
  -1  -3   8 43.9076 4.17628   2
  -1  -3   8 33.2972 4.85501   5
   0   3  -8 17.2009 3.97793   5
   0   3  -8 15.3279 4.04623   5
   0   3  -8 10.7914 2.84378   1
   0   3  -8 16.5378 3.71512   4
   0   3  -8 11.3903 3.35692   3
   0  -3   8 16.7321 3.41293   2
   0  -3   8 9.61441 3.07796   4
   0  -3   8 18.4523 3.88634   5
   0  -3   8 20.0262 3.82726   5
  -1   3  -8 59.5587 4.59153   4
  -1   3  -8 50.2589 5.17811   5
  -1   3  -8 58.4834 4.04375   1
  -1   3  -8 57.1118 5.01379   3
  -1   3  -8 54.2503 4.70158   5
  -1   3  -8 56.2108 3.69166   1
   1  -3   8 54.2810 5.08399   4
   1  -3   8 54.7892 5.51433   5
   1  -3   8 51.1973 4.48788   2
   1  -3   8 57.4150 5.06828   5
  -2   3  -8 0.12112 2.19058   5
  -2   3  -8 1.94853 2.11759   3
  -2   3  -8 -0.6616 1.23593   4
  -2   3  -8 -0.7659 2.26220   5
  -2   3  -8 -0.2048 1.37201   1
  -2   3  -8 -0.0122 1.73098   1
   2  -3   8 -1.8315 2.07530   4
   2  -3   8 1.26331 1.82726   5
   2  -3   8 0.86700 1.66898   2
   2  -3   8 -2.7754 2.24445   5
  -3   3  -8 42.9075 5.00857   3
  -3   3  -8 33.7009 5.61078   5
  -3   3  -8 39.7993 4.75860   5
  -3   3  -8 39.5976 3.98355   1
  -3   3  -8 28.2796 4.94036   1
  -3   3  -8 34.8638 3.53021   4
   3  -3   8 50.9547 5.32351   5
   3  -3   8 40.4709 4.56126   2
   3  -3   8 38.7890 4.49930   4
  -4   3  -8 0.66424 2.09036   5
  -4   3  -8 18.7466 5.86853   5
  -4   3  -8 4.96940 1.92485   1
  -4   3  -8 2.36146 2.30484   3
   4  -3   8 2.83659 2.36529   2
   4  -3   8 3.24966 1.89668   4
  -5   3  -8 60.2224 5.87471   1
  -5   3  -8 52.3171 6.10712   3
  -5   3  -8 58.1864 6.13981   5
   5  -3   8 49.7589 6.69436   5
   5  -3   8 57.7473 6.49143   2
  -6   3  -8 4.11896 2.63945   1
  -6   3  -8 9.37202 3.46082   5
  -6   3  -8 20.1799 6.16454   3
   6  -3   8 1.98587 4.97581   5
  -7   3  -8 4.93824 3.75401   1
  -7   3  -8 6.89045 4.72013   3
  -7   3  -8 4.41307 4.04706   5
   7  -3   8 2.36733 3.80207   2
  -7  -2   8 45.6242 10.2194   5
   6   2  -8 3.70143 3.57865   4
  -6  -2   8 -5.4647 2.77401   5
  -6  -2   8 3.20212 2.61151   1
   5   2  -8 3.38409 3.00137   4
   5   2  -8 1.29893 2.95368   3
  -5  -2   8 1.83125 2.02690   1
  -5  -2   8 4.12770 2.55191   5
   4   2  -8 8.02667 2.86880   1
   4   2  -8 15.1412 5.03834   5
   4   2  -8 21.2624 3.57820   3
   4   2  -8 28.1610 5.61380   4
  -4  -2   8 12.4150 3.02473   5
  -4  -2   8 15.8053 3.12516   1
  -4  -2   8 24.1339 6.98644   5
   3   2  -8 51.5633 4.31600   1
   3   2  -8 53.6476 5.25322   5
   3   2  -8 47.0458 4.21940   3
   3   2  -8 49.9407 5.30545   4
  -3  -2   8 48.5172 4.95546   5
  -3  -2   8 50.5516 4.78212   2
  -3  -2   8 43.1722 5.02100   3
  -3  -2   8 52.6827 3.32612   1
  -3  -2   8 59.3266 5.73793   5
   2   2  -8 20.3180 3.58501   3
   2   2  -8 23.3504 3.79503   5
   2   2  -8 22.5704 3.00835   1
  -2  -2   8 23.0322 3.75336   5
  -2  -2   8 29.4081 4.92050   2
  -2  -2   8 24.6958 3.62159   1
  -2  -2   8 17.1437 4.82446   5
  -2  -2   8 21.6236 4.28040   3
  -2  -2   8 20.7696 3.69373   2
   1   2  -8 33.7769 2.70067   1
   1   2  -8 29.1047 3.86896   5
   1   2  -8 30.4074 4.07020   3
   1   2  -8 34.9016 4.55412   4
  -1  -2   8 35.9446 4.69333   2
  -1  -2   8 33.9807 3.92758   5
  -1  -2   8 34.5396 3.82199   2
  -1  -2   8 34.1976 4.24454   5
  -1  -2   8 32.9693 4.50986   3
   0   2  -8 10.8368 3.16045   5
   0   2  -8 9.93923 2.07407   1
   0   2  -8 5.25548 1.76594   4
   0   2  -8 17.2727 3.50118   5
   0   2  -8 8.34883 1.84974   1
   0   2  -8 9.24860 3.26679   3
   0  -2   8 7.57660 2.00508   5
   0  -2   8 6.60925 2.53695   4
   0  -2   8 14.8352 3.21869   2
   0  -2   8 5.30202 1.49117   5
  -1   2  -8 258.449 10.1610   5
  -1   2  -8 268.456 10.4326   3
  -1   2  -8 274.322 10.0576   4
  -1   2  -8 279.695 9.87601   5
  -1   2  -8 278.522 8.27396   1
  -1   2  -8 275.708 8.29279   1
   1  -2   8 272.974 9.99936   5
   1  -2   8 267.307 10.1796   4
   1  -2   8 267.520 10.1240   5
   1  -2   8 280.682 10.3053   2
  -2   2  -8 102.520 5.97238   5
  -2   2  -8 104.582 4.83679   1
  -2   2  -8 91.8453 6.40271   5
  -2   2  -8 100.803 6.07860   3
  -2   2  -8 106.244 5.57942   4
  -2   2  -8 102.586 4.53766   1
   2  -2   8 89.4478 6.18235   5
   2  -2   8 101.868 5.87098   2
   2  -2   8 104.839 6.03592   5
   2  -2   8 99.6999 5.98962   4
  -3   2  -8 5.41509 1.99005   5
  -3   2  -8 5.02149 1.76948   4
  -3   2  -8 1.39814 1.52700   5
  -3   2  -8 5.06477 1.85188   1
  -3   2  -8 2.57678 1.86545   3
  -3   2  -8 8.07861 2.69931   1
   3  -2   8 11.1502 3.81833   2
   3  -2   8 2.05389 2.76876   5
   3  -2   8 2.37449 2.11032   4
   3  -2   8 1.01266 1.65731   5
  -4   2  -8 14.4513 3.95887   3
  -4   2  -8 19.1010 3.70613   1
  -4   2  -8 9.00869 3.18261   5
  -4   2  -8 16.8956 4.39944   5
   4  -2   8 12.9123 4.17469   2
   4  -2   8 17.5129 4.19274   4
  -5   2  -8 59.7191 6.27646   5
  -5   2  -8 45.7180 5.53087   3
  -5   2  -8 48.2332 4.87090   1
   5  -2   8 39.8049 3.97842   4
   5  -2   8 46.4039 5.70437   2
   5  -2   8 50.2702 4.94284   4
   5  -2   8 51.1825 6.16617   5
  -6   2  -8 2.11917 2.77268   1
  -6   2  -8 2.61304 3.22923   3
  -6   2  -8 0.50007 2.69058   5
   6  -2   8 -3.9833 2.77493   5
   6  -2   8 -1.8461 2.58596   2
  -7   2  -8 7.35199 3.19505   1
  -7   2  -8 3.76557 3.19560   5
  -7   2  -8 1.96545 3.76113   3
   7  -2   8 7.11624 3.33743   2
  -8   2  -8 22.9638 5.93852   3
  -8   2  -8 24.8416 5.06059   1
  -8   2  -8 27.5836 5.56091   5
   8  -2   8 22.9481 5.30962   2
  -7  -1   8 51.6384 9.46161   5
  -7  -1   8 60.9816 7.74433   1
   6   1  -8 1.55481 3.26415   4
  -6  -1   8 -0.9065 2.22950   1
  -6  -1   8 0.10525 3.12452   5
   5   1  -8 2.65839 2.72056   4
  -5  -1   8 0.13393 2.19672   5
  -5  -1   8 2.36952 1.93775   1
   4   1  -8 29.9026 5.44139   4
   4   1  -8 16.2937 4.54323   1
   4   1  -8 18.4699 3.25496   3
  -4  -1   8 25.0154 5.79465   5
  -4  -1   8 23.1130 3.18017   1
  -4  -1   8 14.8433 4.27804   5
   3   1  -8 27.4811 3.93437   5
   3   1  -8 30.5536 4.84789   4
   3   1  -8 29.6258 3.43701   1
   3   1  -8 26.8984 3.39008   3
  -3  -1   8 25.7802 4.07662   2
  -3  -1   8 25.0919 4.07198   3
  -3  -1   8 26.3775 2.44511   1
  -3  -1   8 20.8118 4.71489   5
  -3  -1   8 30.0278 4.16241   5
   2   1  -8 44.3012 4.34077   5
   2   1  -8 44.7721 3.80108   3
   2   1  -8 44.4844 5.14996   4
   2   1  -8 41.1774 2.62215   1
  -2  -1   8 49.9374 4.43531   5
  -2  -1   8 42.0473 4.09141   5
  -2  -1   8 40.0188 4.32943   2
  -2  -1   8 32.3098 4.29555   3
  -2  -1   8 43.4044 2.50220   1
   1   1  -8 4.95157 1.65582   3
   1   1  -8 5.51984 1.61830   5
   1   1  -8 5.80570 1.85824   4
  -1  -1   8 14.7495 4.05690   2
  -1  -1   8 6.03652 1.78184   5
  -1  -1   8 4.85599 1.74059   2
  -1  -1   8 3.56446 2.09731   5
  -1  -1   8 4.39426 2.34989   3
   0   1  -8 3.43497 1.49574   4
   0   1  -8 5.27654 1.84965   5
   0   1  -8 3.15115 1.83450   5
   0   1  -8 3.33291 1.49179   3
   0  -1   8 4.22429 2.40092   3
   0  -1   8 8.79776 2.88169   5
   0  -1   8 3.83874 1.69950   2
   0  -1   8 2.01510 2.18367   4
   0  -1   8 3.73024 1.51320   5
  -1   1  -8 25.8327 3.47243   4
  -1   1  -8 25.2517 3.74211   5
  -1   1  -8 27.3448 3.27727   3
  -1   1  -8 30.4979 3.57156   5
   1  -1   8 20.2641 4.35857   4
   1  -1   8 26.0949 3.35712   5
   1  -1   8 25.0612 3.38029   2
   1  -1   8 31.2563 3.67331   5
  -2   1  -8 0.93624 1.03710   1
  -2   1  -8 1.99980 1.65169   3
  -2   1  -8 1.11489 1.41114   4
  -2   1  -8 1.15089 1.28276   5
  -2   1  -8 -1.7557 1.92015   5
  -2   1  -8 -0.2491 1.01183   1
   2  -1   8 -1.9949 1.39634   5
   2  -1   8 0.77813 1.53738   2
   2  -1   8 1.12923 1.75964   4
   2  -1   8 0.68239 1.62613   5
  -3   1  -8 0.56835 1.47321   1
  -3   1  -8 -1.8430 1.73898   3
  -3   1  -8 0.15475 1.51481   5
  -3   1  -8 -0.8227 1.18805   1
   3  -1   8 0.29480 2.14428   5
   3  -1   8 -1.2994 1.93804   4
   3  -1   8 -0.3998 1.51416   5
   3  -1   8 0.55387 1.56024   2
  -4   1  -8 4.71111 2.17151   5
  -4   1  -8 1.80925 1.43558   1
  -4   1  -8 0.16287 1.95547   3
   4  -1   8 -0.2217 2.20949   4
   4  -1   8 2.83640 1.97707   2
   4  -1   8 2.05477 2.76146   5
  -5   1  -8 26.6494 5.38861   5
  -5   1  -8 22.4127 5.01318   3
  -5   1  -8 17.0470 3.76526   1
   5  -1   8 23.6093 3.79309   4
   5  -1   8 21.8389 5.39885   5
   5  -1   8 16.0280 4.42736   2
   5  -1   8 22.3341 4.55426   4
  -6   1  -8 3.23223 2.19929   1
  -6   1  -8 -3.2928 2.31625   5
  -6   1  -8 0.64983 2.92713   3
   6  -1   8 3.39093 1.91831   4
   6  -1   8 -3.1561 2.57229   5
   6  -1   8 -0.9575 2.26840   2
  -7   1  -8 6.93588 3.80155   3
  -7   1  -8 5.36289 2.95538   1
  -7   1  -8 0.36589 2.77760   5
   7  -1   8 7.61011 3.67674   5
   7  -1   8 2.31031 3.22878   2
   7  -1   8 6.19126 2.53343   4
  -8   1  -8 10.9619 4.80614   3
  -8   1  -8 4.05770 3.45016   1
  -8   1  -8 10.8120 4.83395   5
   8  -1   8 30.6921 8.69485   2
   7   0  -8 7.26193 4.60597   4
  -7   0   8 -4.0221 3.06629   1
  -7   0   8 2.47777 4.29584   5
   6   0  -8 21.2596 7.33082   4
  -6   0   8 13.1958 2.91255   1
  -6   0   8 25.0885 6.91119   5
   5   0  -8 33.9942 6.33236   4
  -5   0   8 38.2943 4.03125   1
  -5   0   8 37.1363 5.64544   5
   4   0  -8 8.69911 2.56281   1
   4   0  -8 7.24116 2.52465   3
   4   0  -8 20.0629 4.29281   5
   4   0  -8 14.4090 5.12458   4
  -4   0   8 9.38072 2.89559   3
  -4   0   8 12.0368 3.70871   5
  -4   0   8 10.1837 2.65054   5
  -4   0   8 10.3305 2.65160   1
   3   0  -8 320.079 9.58463   1
   3   0  -8 318.483 10.7712   5
   3   0  -8 315.103 10.0510   3
   3   0  -8 323.402 12.7850   4
  -3   0   8 314.531 9.56891   1
  -3   0   8 322.334 10.1918   3
  -3   0   8 331.655 11.7658   5
  -3   0   8 299.701 11.5275   5
   2   0  -8 149.291 7.52914   4
   2   0  -8 148.281 6.21080   3
   2   0  -8 148.255 6.49521   5
  -2   0   8 152.469 7.27192   2
  -2   0   8 147.910 6.51664   3
  -2   0   8 143.131 6.81155   5
  -2   0   8 144.815 6.99674   5
   1   0  -8 4.52586 1.79322   4
   1   0  -8 8.18371 2.62541   3
  -1   0   8 5.09299 1.68067   2
  -1   0   8 4.17956 1.34004   5
  -1   0   8 4.95557 1.60287   5
  -1   0   8 7.01977 2.10742   3
   0   0  -8 19.3527 3.22307   5
   0   0  -8 15.9470 3.11543   4
   0   0  -8 15.4521 2.84634   3
   0   0   8 18.7425 2.82477   5
   0   0   8 14.9195 2.93579   5
   0   0   8 16.0456 3.70075   3
   0   0   8 20.5279 3.08630   2
   0   0   8 23.4681 4.22334   4
  -1   0  -8 8.26622 2.68639   4
  -1   0  -8 5.33609 1.69984   3
  -1   0  -8 4.58888 1.46865   5
  -1   0  -8 12.1521 2.76896   5
   1   0   8 4.90598 1.62444   5
   1   0   8 4.31914 2.08995   4
   1   0   8 9.11927 2.84536   5
   1   0   8 12.3426 3.52783   3
   1   0   8 9.56466 2.99492   2
  -2   0  -8 99.4387 3.70449   1
  -2   0  -8 101.510 5.20102   5
  -2   0  -8 102.841 5.81188   3
  -2   0  -8 99.0242 3.66625   1
  -2   0  -8 92.5459 5.64294   5
  -2   0  -8 101.107 5.34806   4
   2   0   8 93.7584 5.65395   5
   2   0   8 94.1265 5.45790   5
   2   0   8 107.378 5.86050   4
   2   0   8 108.454 6.01368   2
  -3   0  -8 177.798 6.36124   1
  -3   0  -8 181.434 7.35305   5
  -3   0  -8 183.169 7.93606   5
  -3   0  -8 185.514 8.24237   3
   3   0   8 166.649 7.82397   4
   3   0   8 180.228 7.83898   5
   3   0   8 185.274 7.91947   5
   3   0   8 178.142 8.13093   2
  -4   0  -8 50.1788 3.98754   1
  -4   0  -8 54.7838 4.95181   5
  -4   0  -8 58.4790 5.41836   3
   4   0   8 58.7013 5.47269   5
   4   0   8 54.8741 5.37731   2
   4   0   8 53.3526 5.26306   4
  -5   0  -8 109.571 7.02522   5
  -5   0  -8 104.609 5.72785   1
  -5   0  -8 105.552 7.15244   3
   5   0   8 117.251 7.16041   5
   5   0   8 95.2167 6.63989   4
   5   0   8 99.1219 6.77296   1
   5   0   8 118.281 8.48897   5
   5   0   8 105.794 7.09100   2
   5   0   8 103.802 5.75681   4
  -6   0  -8 21.8511 5.28865   5
  -6   0  -8 29.0810 5.62459   3
  -6   0  -8 26.7915 4.74111   1
   6   0   8 26.7733 5.57232   2
   6   0   8 37.8822 7.08573   4
   6   0   8 17.4168 3.31751   5
   6   0   8 26.2477 4.10691   4
  -7   0  -8 16.9846 5.35127   1
  -7   0  -8 6.03885 3.33242   3
  -7   0  -8 0.54423 3.22735   5
   7   0   8 2.45344 2.19041   4
   7   0   8 5.46333 3.39921   5
   7   0   8 0.90301 2.91195   2
  -8   0  -8 50.2187 8.20890   1
  -8   0  -8 64.2551 8.82818   3
   8   0   8 65.5410 8.62543   2
   7  -1  -8 100.510 10.3919   4
  -7   1   8 74.1099 7.51684   1
  -7   1   8 89.5064 9.32470   5
   6  -1  -8 7.75330 3.81077   4
  -6   1   8 6.30767 2.60189   1
  -6   1   8 0.51327 2.64047   5
   5  -1  -8 5.62376 3.10612   4
  -5   1   8 1.31936 1.77085   1
  -5   1   8 2.60448 2.36303   5
   4  -1  -8 126.063 6.61053   5
   4  -1  -8 107.860 5.89247   1
   4  -1  -8 123.176 7.78610   4
  -4   1   8 113.289 5.24743   1
  -4   1   8 107.997 6.73269   5
  -4   1   8 126.695 6.79963   5
   3  -1  -8 307.577 10.2236   5
   3  -1  -8 303.781 9.18923   1
   3  -1  -8 306.202 9.64443   3
   3  -1  -8 322.891 12.5363   4
  -3   1   8 306.720 9.66115   3
  -3   1   8 305.208 11.0620   5
  -3   1   8 308.985 9.07170   1
  -3   1   8 314.277 11.1145   5
   2  -1  -8 58.1292 5.07314   4
   2  -1  -8 56.1905 4.02367   3
   2  -1  -8 61.5869 4.07111   5
  -2   1   8 58.1248 4.12191   3
  -2   1   8 55.4086 4.15577   5
  -2   1   8 54.5275 4.87280   2
  -2   1   8 54.8802 3.95552   5
   1  -1  -8 18.9264 2.89466   5
   1  -1  -8 20.2766 3.55075   4
   1  -1  -8 19.9256 2.95787   3
  -1   1   8 18.9760 3.30809   2
  -1   1   8 20.8868 2.99955   5
  -1   1   8 18.8303 2.95426   5
  -1   1   8 16.3836 3.45593   3
   0  -1  -8 87.1492 5.04299   3
   0  -1  -8 87.8633 4.60344   5
   0  -1  -8 88.0728 5.55077   4
   0   1   8 83.2588 5.04329   3
   0   1   8 85.5930 4.80069   5
   0   1   8 97.5704 6.25286   4
   0   1   8 85.6103 4.63468   5
   0   1   8 88.4530 5.20721   2
  -1  -1  -8 315.135 10.9063   3
  -1  -1  -8 311.721 11.1606   4
  -1  -1  -8 293.844 10.0584   5
   1   1   8 316.441 11.1788   2
   1   1   8 289.651 10.9783   4
   1   1   8 311.983 10.3187   5
   1   1   8 304.914 10.4968   5
   1   1   8 301.901 10.7607   3
  -2  -1  -8 1.08973 1.40617   5
  -2  -1  -8 -0.0706 1.32057   4
  -2  -1  -8 -0.2088 1.62299   3
  -2  -1  -8 -0.5442 1.42603   5
   2   1   8 -0.2152 1.49804   5
   2   1   8 0.51566 1.32139   2
   2   1   8 -1.6829 1.26420   5
   2   1   8 2.79617 1.81560   4
  -3  -1  -8 6.06983 1.80528   5
  -3  -1  -8 7.02801 2.20835   3
  -3  -1  -8 7.79886 2.06330   1
   3   1   8 3.93781 1.80069   2
   3   1   8 4.99239 1.81909   5
   3   1   8 6.13920 2.16121   5
   3   1   8 3.96918 1.99323   4
  -4  -1  -8 25.3782 3.13221   1
  -4  -1  -8 26.5252 4.14688   3
  -4  -1  -8 29.2985 3.79518   5
   4   1   8 30.2655 3.62799   1
   4   1   8 22.8986 4.67808   4
   4   1   8 31.1517 4.57502   2
   4   1   8 24.3213 5.00437   5
  -5  -1  -8 0.79011 2.06696   5
  -5  -1  -8 -3.1427 1.87295   3
  -5  -1  -8 0.19123 1.62754   1
   5   1   8 -1.7340 1.44477   2
   5   1   8 0.36394 1.63214   4
   5   1   8 -2.5002 2.68856   4
   5   1   8 -2.9742 2.48006   1
   5   1   8 1.82343 2.49093   5
   5   1   8 -2.2092 1.84025   5
  -6  -1  -8 4.20703 2.90186   5
  -6  -1  -8 7.12423 2.98585   3
  -6  -1  -8 1.96140 2.34631   1
   6   1   8 5.43431 2.76569   2
   6   1   8 4.64083 2.17791   4
   6   1   8 0.66549 2.35213   5
  -7  -1  -8 0.17872 3.31054   5
  -7  -1  -8 17.4714 5.81613   3
   7   1   8 2.68739 2.96930   5
   7   1   8 2.16270 3.09055   2
  -8  -1  -8 4.78809 3.69658   1
  -8  -1  -8 2.01555 4.20583   3
   8   1   8 -5.4864 3.85142   5
   8   1   8 -3.3226 2.74306   4
   7  -2  -8 2.05190 3.72998   4
  -7   2   8 9.72751 3.61681   1
  -7   2   8 11.7967 4.29877   5
   6  -2  -8 105.786 8.88313   4
  -6   2   8 124.180 8.45974   5
  -6   2   8 104.834 6.74723   1
   5  -2  -8 35.4984 6.08414   4
  -5   2   8 41.4689 4.25764   1
  -5   2   8 28.5605 4.98608   5
   4  -2  -8 170.630 9.15285   4
   4  -2  -8 167.287 7.18529   5
  -4   2   8 175.879 6.57909   1
  -4   2   8 174.495 7.87056   5
  -4   2   8 171.960 8.17528   5
   3  -2  -8 20.7076 3.38601   5
   3  -2  -8 11.1891 4.02109   4
  -3   2   8 14.5156 2.26473   1
  -3   2   8 13.7265 2.90706   3
  -3   2   8 8.63800 2.01253   5
  -3   2   8 13.5376 2.97983   5
   2  -2  -8 129.198 5.60825   3
   2  -2  -8 134.214 7.28118   4
  -2   2   8 125.194 5.86371   5
  -2   2   8 129.028 5.87026   3
  -2   2   8 135.417 6.12527   5
  -2   2   8 135.178 7.23482   2
   1  -2  -8 11.4650 2.77250   5
   1  -2  -8 16.8616 2.80185   3
   1  -2  -8 16.3742 3.51206   4
  -1   2   8 13.3326 2.55733   5
  -1   2   8 12.9968 3.26390   3
  -1   2   8 13.1646 2.76005   5
  -1   2   8 17.2168 3.51574   2
   0  -2  -8 134.822 5.33260   5
   0  -2  -8 139.741 6.24647   3
   0  -2  -8 137.269 6.90098   4
   0   2   8 136.066 6.71407   2
   0   2   8 130.948 5.78812   5
   0   2   8 135.302 6.41829   3
   0   2   8 144.654 6.07294   5
  -1  -2  -8 323.357 9.71239   5
  -1  -2  -8 324.725 11.1712   3
  -1  -2  -8 311.386 11.3997   4
   1   2   8 270.465 10.9573   4
   1   2   8 316.066 11.4070   2
   1   2   8 312.205 10.2425   5
   1   2   8 330.018 10.5801   5
   1   2   8 307.783 11.1097   3
  -2  -2  -8 109.660 6.05957   3
  -2  -2  -8 106.089 5.09212   5
  -2  -2  -8 113.048 5.99943   4
   2   2   8 114.069 5.57943   5
   2   2   8 112.197 5.35774   5
   2   2   8 95.4228 5.97264   4
   2   2   8 111.549 6.31639   2
  -3  -2  -8 28.0028 3.63254   5
  -3  -2  -8 31.1137 4.01003   3
  -3  -2  -8 30.4271 2.42819   1
   3   2   8 18.8402 4.51394   4
   3   2   8 27.7744 2.58924   1
   3   2   8 33.0708 3.67040   5
   3   2   8 31.1870 3.88134   5
   3   2   8 23.4720 3.67941   2
  -4  -2  -8 -0.7262 1.75787   3
  -4  -2  -8 1.25254 1.32870   1
  -4  -2  -8 1.35920 1.78556   5
   4   2   8 1.25399 1.74493   1
   4   2   8 0.26250 2.17447   4
   4   2   8 0.22679 1.77531   5
   4   2   8 -1.0673 1.40737   5
   4   2   8 -0.0040 1.46624   2
  -5  -2  -8 66.7900 5.59489   5
  -5  -2  -8 70.5225 4.61069   1
  -5  -2  -8 69.5608 5.63929   3
   5   2   8 72.6577 5.69843   1
   5   2   8 66.8158 5.18325   4
   5   2   8 76.3088 5.75862   5
   5   2   8 69.6444 6.05603   2
   5   2   8 55.9494 6.57413   5
  -6  -2  -8 240.471 10.7762   5
  -6  -2  -8 251.292 11.1898   3
  -6  -2  -8 240.837 9.84529   1
   6   2   8 249.350 10.3306   4
   6   2   8 236.649 12.4799   5
   6   2   8 257.563 11.2102   5
   6   2   8 245.996 11.4234   2
  -7  -2  -8 32.6735 5.51992   1
  -7  -2  -8 45.6914 6.79410   3
  -7  -2  -8 41.1040 6.96059   5
   7   2   8 43.8380 5.44772   4
   7   2   8 41.3332 7.07655   2
   7   2   8 40.7900 6.87302   5
  -8  -2  -8 20.8439 7.25772   3
  -8  -2  -8 12.0989 3.13322   1
   8   2   8 12.7120 3.09498   4
   8   2   8 22.5564 7.63310   2
   8   2   8 12.2437 3.91323   5
  -9  -2  -8 9.81923 4.29015   1
  -9  -2  -8 4.33031 4.86484   3
   9   2   8 36.4767 10.0039   2
   7  -3  -8 4.70244 4.50295   4
  -7   3   8 -2.1669 3.35819   5
  -7   3   8 -1.8389 3.36669   1
   6  -3  -8 4.42688 3.47370   4
  -6   3   8 7.15447 2.79862   5
  -6   3   8 7.94117 2.96775   1
   5  -3  -8 149.226 9.18282   4
  -5   3   8 151.202 7.23405   1
  -5   3   8 143.371 7.83005   5
   4  -3  -8 122.890 7.95565   4
  -4   3   8 113.427 6.65033   5
  -4   3   8 116.950 6.56263   5
  -4   3   8 115.999 5.47848   1
   3  -3  -8 88.9195 6.26531   4
  -3   3   8 83.6793 5.14049   5
  -3   3   8 87.3565 4.39175   3
  -3   3   8 71.8230 5.38949   1
  -3   3   8 91.8579 5.02302   5
   2  -3  -8 22.6063 3.12237   3
   2  -3  -8 26.7088 4.30908   4
   2  -3  -8 27.8204 2.44890   5
  -2   3   8 21.3949 2.75982   5
  -2   3   8 19.6111 3.11235   5
  -2   3   8 21.5898 3.33411   3
   1  -3  -8 130.060 4.57591   5
   1  -3  -8 135.743 7.06189   4
   1  -3  -8 130.324 5.92347   3
  -1   3   8 130.541 6.18694   3
  -1   3   8 128.929 5.60880   5
  -1   3   8 133.649 6.95822   2
  -1   3   8 129.626 5.49021   5
   0  -3  -8 228.534 7.11117   5
   0  -3  -8 237.824 8.86798   3
   0  -3  -8 226.836 9.51102   4
   0   3   8 238.513 8.07368   5
   0   3   8 229.607 8.93584   3
   0   3   8 238.754 9.58610   2
   0   3   8 229.189 8.18291   5
  -1  -3  -8 1604.04 42.9788   4
  -1  -3  -8 1621.21 42.3338   3
  -1  -3  -8 1561.92 40.1465   5
   1   3   8 1618.14 41.0593   5
   1   3   8 1621.91 42.9489   2
   1   3   8 1547.54 42.1656   3
   1   3   8 1609.92 41.3846   5
  -2  -3  -8 26.0906 3.41601   3
  -2  -3  -8 24.0182 2.91316   5
   2   3   8 26.5544 3.16281   5
   2   3   8 23.5927 3.52971   2
   2   3   8 25.2366 3.13093   5
  -3  -3  -8 25.7672 3.61927   3
  -3  -3  -8 22.9481 2.29172   1
  -3  -3  -8 28.8867 3.34448   5
   3   3   8 23.1112 2.54010   1
   3   3   8 25.4181 3.80445   2
   3   3   8 19.9975 3.23097   5
   3   3   8 20.6531 3.21069   5
  -4  -3  -8 20.8149 3.95488   3
  -4  -3  -8 20.5998 2.83479   1
   4   3   8 16.2309 3.36008   1
   4   3   8 22.7315 4.47898   5
   4   3   8 18.6892 3.64331   5
   4   3   8 18.6742 3.91746   2
   4   3   8 21.8313 3.96649   4
  -5  -3  -8 5.98076 2.61799   3
  -5  -3  -8 3.68058 2.09973   5
  -5  -3  -8 5.32415 1.81436   1
   5   3   8 16.3070 5.42673   5
   5   3   8 7.08702 2.33458   2
   5   3   8 0.90095 2.54617   1
   5   3   8 5.05875 2.17579   5
   5   3   8 2.64455 1.83070   4
  -6  -3  -8 75.7098 6.83702   3
  -6  -3  -8 73.5530 6.41050   5
  -6  -3  -8 75.0836 5.54506   1
   6   3   8 70.0529 6.88868   5
   6   3   8 67.8811 8.50856   5
   6   3   8 71.0254 5.98645   4
   6   3   8 72.6235 6.54704   2
  -7  -3  -8 29.2271 7.12241   5
  -7  -3  -8 19.7970 5.18565   1
  -7  -3  -8 14.1930 3.84322   3
   7   3   8 27.0666 5.72163   4
   7   3   8 21.0073 6.21485   2
   7   3   8 26.4034 6.60777   5
  -8  -3  -8 3.39282 3.17540   1
  -8  -3  -8 -0.1872 3.68573   3
   8   3   8 4.31247 3.06183   4
   8   3   8 6.32942 3.89403   5
   8   3   8 2.53660 3.35647   2
  -9  -3  -8 -3.0297 3.74377   1
  -9  -3  -8 -4.3549 4.71465   3
   9   3   8 0.46179 4.09427   2
   9   3   8 -5.6065 3.68863   4
   6  -4  -8 9.02809 4.13138   4
  -6   4   8 1.80790 2.50671   5
  -6   4   8 -0.3376 3.08928   1
   5  -4  -8 20.8903 6.89773   4
  -5   4   8 14.5085 4.25728   5
   4  -4  -8 131.008 8.63728   4
  -4   4   8 137.036 6.88109   5
  -4   4   8 136.261 6.62462   5
  -4   4   8 148.761 6.44968   1
   3  -4  -8 36.8004 5.47305   4
   3  -4  -8 39.8061 3.44074   3
  -3   4   8 33.2133 3.05262   1
  -3   4   8 37.9699 3.42918   5
  -3   4   8 35.6023 3.36119   1
  -3   4   8 34.4329 3.76863   3
  -3   4   8 45.6984 3.77851   5
   2  -4  -8 459.826 15.8257   4
   2  -4  -8 463.693 13.6267   3
  -2   4   8 390.224 12.1699   1
  -2   4   8 455.816 13.6854   3
  -2   4   8 463.093 13.6538   5
  -2   4   8 456.153 13.3545   5
  -2   4   8 460.530 12.3462   1
   1  -4  -8 29.0645 4.28385   4
   1  -4  -8 27.8459 3.52105   3
  -1   4   8 32.1427 4.05497   2
  -1   4   8 28.7395 4.19521   3
  -1   4   8 25.2457 2.78935   5
  -1   4   8 27.0061 2.69283   5
   0  -4  -8 336.315 11.5406   3
   0  -4  -8 327.533 12.3731   4
   0   4   8 348.249 10.5367   5
   0   4   8 345.406 10.6520   5
   0   4   8 344.252 12.5347   2
   0   4   8 339.013 11.8221   3
  -1  -4  -8 37.4965 2.44013   5
  -1  -4  -8 29.1583 3.79793   3
  -1  -4  -8 28.1911 3.85811   4
   1   4   8 34.8982 3.13141   5
   1   4   8 34.5044 4.74181   3
   1   4   8 33.4785 3.09233   5
   1   4   8 33.5107 4.03254   2
  -2  -4  -8 436.660 14.6442   3
  -2  -4  -8 453.288 11.8836   1
  -2  -4  -8 449.881 12.4313   5
   2   4   8 427.240 13.1293   5
   2   4   8 439.195 13.5806   5
   2   4   8 442.206 11.8349   1
   2   4   8 446.827 14.9972   2
  -3  -4  -8 81.0108 5.72550   3
  -3  -4  -8 77.0368 4.40974   5
   3   4   8 74.1527 3.97234   1
   3   4   8 73.4684 4.82444   5
   3   4   8 75.0038 4.86720   5
   3   4   8 73.1007 5.36767   2
  -4  -4  -8 16.2368 4.07723   3
  -4  -4  -8 15.7047 2.80993   1
  -4  -4  -8 11.8405 3.69997   5
   4   4   8 19.7856 3.95875   2
   4   4   8 15.6540 3.45485   5
   4   4   8 14.5655 3.54916   1
   4   4   8 10.8834 2.69717   5
   4   4   8 18.4628 4.30230   4
  -5  -4  -8 42.4871 3.95417   1
  -5  -4  -8 31.7562 5.00256   3
  -5  -4  -8 40.3905 4.74619   5
   5   4   8 48.4023 6.10470   5
   5   4   8 35.0245 5.65594   1
   5   4   8 44.6256 5.47591   4
   5   4   8 42.9651 5.38939   2
   5   4   8 39.6775 4.97234   5
  -6  -4  -8 100.497 6.34147   1
  -6  -4  -8 97.1203 6.63802   5
  -6  -4  -8 97.7849 7.70115   3
   6   4   8 104.706 7.91095   2
   6   4   8 109.585 7.67487   5
   6   4   8 101.722 7.02304   4
   6   4   8 95.4700 9.21105   5
  -7  -4  -8 -3.2944 2.27655   1
  -7  -4  -8 6.55436 3.43173   3
   7   4   8 2.33310 2.79934   2
   7   4   8 -3.7803 2.43990   5
   7   4   8 3.14906 2.78650   4
  -8  -4  -8 5.53343 3.01306   1
  -8  -4  -8 8.36639 4.14054   3
   8   4   8 4.64219 3.18737   4
   8   4   8 8.56813 3.98356   2
   8   4   8 16.0403 4.90822   5
  -9  -4  -8 48.2155 10.1135   3
  -9  -4  -8 22.4832 4.69864   1
   9   4   8 37.5952 11.7579   5
   9   4   8 37.3389 9.09026   4
   6  -5  -8 -2.1636 3.72251   4
  -6   5   8 0.76957 2.84061   1
  -6   5   8 3.50528 2.64753   5
   5  -5  -8 1.32893 2.86653   4
  -5   5   8 -0.4985 2.20535   1
  -5   5   8 0.28599 1.89605   5
   4  -5  -8 -0.2660 2.58280   4
  -4   5   8 1.65585 1.59503   5
  -4   5   8 4.11329 1.99211   1
   3  -5  -8 22.0927 5.09885   4
  -3   5   8 26.3474 3.26636   5
  -3   5   8 29.2739 4.06474   3
  -3   5   8 28.4154 3.71974   1
  -3   5   8 25.0607 3.16929   1
   2  -5  -8 366.598 13.8472   4
   2  -5  -8 380.085 11.9352   3
  -2   5   8 359.758 10.8567   1
  -2   5   8 364.370 10.9544   1
  -2   5   8 384.645 11.5394   5
  -2   5   8 369.899 12.1511   3
   1  -5  -8 33.7684 3.84031   3
   1  -5  -8 32.3751 4.36579   4
  -1   5   8 30.8489 4.52371   3
  -1   5   8 30.8303 2.48142   1
  -1   5   8 34.8688 2.48104   1
  -1   5   8 32.4394 2.95882   5
  -1   5   8 36.9579 2.92895   5
  -1   5   8 35.4610 4.39242   2
   0  -5  -8 21.6656 4.10625   4
   0  -5  -8 20.7083 3.47105   3
   0   5   8 15.7327 3.47103   2
   0   5   8 18.0975 2.26378   5
   0   5   8 14.0902 3.17979   3
   0   5   8 16.6194 1.85823   1
   0   5   8 16.7184 1.94495   1
   0   5   8 18.4965 2.54226   5
  -1  -5  -8 146.603 7.17254   3
   1   5   8 148.187 7.55078   2
   1   5   8 149.101 5.93452   5
   1   5   8 154.732 5.86343   5
   1   5   8 153.927 4.99784   1
  -2  -5  -8 25.1540 4.13203   3
  -2  -5  -8 21.9165 2.16444   1
   2   5   8 20.7573 3.11638   5
   2   5   8 18.4928 2.57571   1
   2   5   8 18.6398 3.57895   2
   2   5   8 23.8477 2.98314   5
  -3  -5  -8 0.92627 2.02025   3
  -3  -5  -8 1.73761 1.08978   1
  -3  -5  -8 0.19855 1.52932   5
   3   5   8 1.10068 1.54461   1
   3   5   8 0.00494 1.71765   5
   3   5   8 1.53132 1.60610   2
  -4  -5  -8 155.659 6.81009   5
  -4  -5  -8 169.421 6.67649   1
  -4  -5  -8 178.628 8.79039   3
   4   5   8 174.294 8.77765   2
   4   5   8 166.166 7.54032   5
   4   5   8 174.297 8.95137   4
   4   5   8 174.288 7.72520   5
   4   5   8 170.579 7.27303   1
  -5  -5  -8 132.773 8.05444   3
  -5  -5  -8 124.520 6.82907   5
  -5  -5  -8 142.002 6.65370   1
   5   5   8 128.951 6.99887   5
   5   5   8 127.001 7.82626   2
   5   5   8 127.015 7.89989   4
   5   5   8 111.989 7.26963   1
   5   5   8 113.138 7.78009   5
  -6  -5  -8 4.41994 2.89559   5
  -6  -5  -8 3.29852 2.15404   1
  -6  -5  -8 -0.3343 2.67301   3
   6   5   8 4.92834 2.88305   4
   6   5   8 1.37736 2.35166   2
   6   5   8 1.69310 2.26076   5
  -7  -5  -8 14.8772 4.06876   3
  -7  -5  -8 9.08860 2.85025   1
   7   5   8 20.7888 6.66317   2
   7   5   8 9.08636 3.42218   5
   7   5   8 9.89093 3.38919   4
  -8  -5  -8 17.8951 5.05325   3
  -8  -5  -8 9.11324 3.40922   1
   8   5   8 3.63648 4.32710   5
   8   5   8 5.24350 3.56587   4
   8   5   8 8.06403 4.03524   2
   6  -6  -8 6.20896 4.22840   4
  -6   6   8 12.2906 3.26148   5
  -6   6   8 7.10274 3.53952   1
  -5   6   8 16.1773 4.33467   5
  -5   6   8 22.5391 5.60405   1
   4  -6  -8 1.18208 2.75495   4
  -4   6   8 2.02916 2.18675   1
  -4   6   8 1.83987 1.64236   5
  -4   6   8 -1.3589 1.98681   5
   3  -6  -8 18.6219 5.28422   4
  -3   6   8 26.3228 3.62482   1
  -3   6   8 25.9220 3.37812   5
  -3   6   8 26.7175 3.22561   5
   2  -6  -8 3.49895 2.43254   4
  -2   6   8 11.0652 2.99210   3
  -2   6   8 9.17282 2.34662   5
  -2   6   8 4.82809 1.41901   5
  -2   6   8 4.86496 1.47414   1
  -2   6   8 4.30556 1.84216   1
   1  -6  -8 88.1768 5.34831   3
   1  -6  -8 86.8392 6.50263   4
  -1   6   8 82.8331 6.05296   2
  -1   6   8 83.1987 4.39978   1
  -1   6   8 90.6363 4.09497   5
  -1   6   8 89.7947 4.07942   5
  -1   6   8 84.7742 4.05149   1
  -1   6   8 68.6347 6.41115   3
   0  -6  -8 119.120 6.49573   3
   0   6   8 110.195 4.65919   1
   0   6   8 120.455 6.98223   2
   0   6   8 117.553 4.77030   5
   0   6   8 118.030 4.79420   5
  -1  -6  -8 26.2010 3.84279   3
   1   6   8 25.7008 4.05028   2
   1   6   8 28.2298 2.87525   1
   1   6   8 30.8904 2.84551   5
   1   6   8 26.3648 2.88025   5
  -2  -6  -8 386.865 11.4451   1
  -2  -6  -8 405.582 14.0137   3
   2   6   8 381.361 11.5098   1
   2   6   8 385.640 12.0093   5
   2   6   8 384.478 13.8033   2
   2   6   8 381.213 11.7755   5
  -3  -6  -8 7.40505 2.54804   1
  -3  -6  -8 3.97860 2.23846   3
   3   6   8 2.79581 1.60643   5
   3   6   8 5.00415 1.79350   1
   3   6   8 2.58688 1.97176   4
   3   6   8 5.84839 2.19479   2
   3   6   8 3.58669 1.63019   5
  -4  -6  -8 231.698 8.52423   1
  -4  -6  -8 228.010 8.06329   5
  -4  -6  -8 230.538 10.3144   3
   4   6   8 230.121 10.5768   4
   4   6   8 230.267 9.22060   5
   4   6   8 236.768 9.14832   1
   4   6   8 230.322 10.2829   2
   4   6   8 229.831 9.13057   5
  -5  -6  -8 1.94813 2.42105   3
  -5  -6  -8 3.88111 2.04239   5
  -5  -6  -8 3.45875 1.81844   1
   5   6   8 -0.1227 1.84827   5
   5   6   8 2.07802 2.85849   5
   5   6   8 6.71560 2.70488   2
   5   6   8 4.43553 2.69916   4
  -6  -6  -8 226.908 10.1702   1
  -6  -6  -8 257.268 12.1520   3
   6   6   8 240.572 11.9728   4
   6   6   8 245.346 11.4839   2
   6   6   8 241.311 10.8235   5
  -7  -6  -8 0.08335 3.36456   3
  -7  -6  -8 3.20907 2.93830   1
   7   6   8 -0.0128 3.07629   5
   7   6   8 2.87024 3.53082   4
   7   6   8 3.25001 3.34562   2
  -8  -6  -8 0.07400 3.57846   1
  -8  -6  -8 3.71447 4.76570   3
   8   6   8 4.35784 3.20387   5
   8   6   8 3.57716 3.82604   4
   8   6   8 6.71404 4.21955   2
   5  -7  -8 3.69098 4.01257   4
  -5   7   8 0.15418 2.05273   5
  -5   7   8 0.53360 3.15412   1
   4  -7  -8 -1.4284 2.99358   4
  -4   7   8 -0.3366 1.59145   5
  -4   7   8 -2.9214 2.18658   1
  -4   7   8 -3.7287 1.98223   5
   3  -7  -8 4.74083 2.87326   4
  -3   7   8 -0.6448 1.89463   3
  -3   7   8 1.39565 1.74940   5
  -3   7   8 1.78474 1.73965   1
  -3   7   8 4.65142 1.41253   5
   2  -7  -8 -1.8991 2.01164   4
  -2   7   8 0.40243 1.01057   5
  -2   7   8 -3.9763 3.48092   3
  -2   7   8 -0.0953 1.61038   1
  -2   7   8 -3.2913 2.53933   1
  -2   7   8 0.68199 1.27453   5
   1  -7  -8 -1.6244 2.03245   3
  -1   7   8 2.84304 1.53653   1
  -1   7   8 1.36462 1.01030   5
  -1   7   8 0.02570 1.80995   2
  -1   7   8 2.43827 1.17335   5
  -1   7   8 1.28845 1.99215   1
   0  -7  -8 42.3468 4.60117   3
   0   7   8 37.4181 2.91660   5
   0   7   8 36.4599 3.37116   1
   0   7   8 36.9898 2.87226   5
   0   7   8 37.8520 3.77725   1
   0   7   8 37.6847 4.66976   2
  -1  -7  -8 43.1160 4.73377   3
   1   7   8 49.3607 3.19153   5
   1   7   8 47.5039 4.09026   1
   1   7   8 46.3937 3.38475   5
   1   7   8 42.3374 4.86797   2
  -2  -7  -8 17.9416 2.85885   1
  -2  -7  -8 14.5573 4.11353   3
   2   7   8 18.8753 4.06167   2
   2   7   8 21.6450 3.35644   5
   2   7   8 26.0841 3.92009   1
  -3  -7  -8 39.4615 5.36447   3
  -3  -7  -8 34.9226 3.62656   1
   3   7   8 39.1274 3.88177   5
   3   7   8 39.0246 5.52696   4
   3   7   8 47.9318 5.19875   2
   3   7   8 38.2079 4.06879   5
   3   7   8 32.6017 4.78829   1
  -4  -7  -8 28.3529 5.58239   3
  -4  -7  -8 31.2619 3.98923   1
   4   7   8 37.2793 6.07977   1
   4   7   8 22.7247 4.77302   2
   4   7   8 32.5132 4.49596   5
   4   7   8 30.0406 5.28087   4
   4   7   8 36.4311 5.14962   5
  -5  -7  -8 66.2943 5.52598   1
  -5  -7  -8 67.3188 7.23946   3
   5   7   8 73.9538 6.77672   5
   5   7   8 76.1973 5.78819   5
   5   7   8 79.7534 7.25054   2
   5   7   8 70.2174 7.22480   4
  -6  -7  -8 43.4510 7.33688   3
  -6  -7  -8 40.4107 5.11772   1
   6   7   8 52.6337 6.40080   5
   6   7   8 40.2513 6.68035   4
   6   7   8 52.0284 6.63517   2
  -7  -7  -8 5.33474 4.10650   3
  -7  -7  -8 1.50451 3.08619   1
   7   7   8 4.90220 3.65307   4
   7   7   8 1.90178 3.03388   5
   7   7   8 12.2023 3.93884   2
  -8  -7  -8 0.82815 4.22832   1
  -8  -7  -8 -2.5448 4.40947   3
   8   7   8 0.47650 5.09402   5
   8   7   8 3.45893 4.47015   2
   8   7   8 0.45119 3.88881   4
   5  -8  -8 6.11514 4.90601   4
  -5   8   8 -1.1427 2.24933   5
  -5   8   8 -0.1777 3.32205   1
  -4   8   8 0.25909 1.88240   5
  -4   8   8 1.62532 2.69336   1
  -4   8   8 -1.4333 2.50027   5
  -3   8   8 4.26542 2.51319   3
  -3   8   8 -0.9570 1.63203   5
  -3   8   8 2.80933 1.52505   5
  -3   8   8 4.27599 2.42267   1
  -2   8   8 0.46453 1.96053   1
  -2   8   8 1.31919 1.16884   5
  -2   8   8 0.69668 2.49752   2
  -1   8   8 0.60063 2.29123   2
  -1   8   8 8.08764 2.38341   5
  -1   8   8 2.05115 3.02887   1
  -1   8   8 2.94598 1.10995   5
  -1   8   8 1.10222 1.90355   1
   0  -8  -8 0.05426 2.40134   3
   0   8   8 2.39003 2.14800   2
   0   8   8 1.20884 1.57199   1
   0   8   8 -2.2944 2.43403   1
   0   8   8 1.50529 1.10810   5
   0   8   8 2.41647 1.27107   5
  -1  -8  -8 2.51465 2.52057   3
   1   8   8 1.38976 2.37119   1
   1   8   8 5.02796 1.53877   5
   1   8   8 1.34479 2.17612   2
  -2  -8  -8 13.0134 3.37965   1
  -2  -8  -8 11.7676 2.91224   3
   2   8   8 9.96018 2.56493   2
   2   8   8 27.7659 5.85449   4
   2   8   8 16.1637 3.24360   5
   2   8   8 14.4794 2.98846   5
   2   8   8 21.0293 4.90851   1
  -3  -8  -8 0.67854 2.61279   3
  -3  -8  -8 -0.0646 1.86347   1
   3   8   8 1.77513 2.23996   2
   3   8   8 -1.0304 1.41570   5
   3   8   8 -4.2925 2.73152   1
   3   8   8 -0.3376 2.13527   4
   3   8   8 2.12016 2.09021   5
  -4  -8  -8 21.5184 4.42502   1
  -4  -8  -8 14.4902 3.44494   3
   4   8   8 14.3518 4.84566   2
   4   8   8 14.4051 3.64597   4
   4   8   8 21.1950 5.42867   5
   4   8   8 20.1943 4.05555   5
  -5  -8  -8 10.9759 2.71766   1
  -5  -8  -8 3.86272 2.99181   3
   5   8   8 10.9092 3.73973   4
   5   8   8 7.89882 2.72530   5
  -6  -8  -8 71.0520 6.83984   1
  -6  -8  -8 70.7395 7.79353   3
   6   8   8 85.7364 8.59935   4
   6   8   8 71.0370 6.69805   5
   6   8   8 72.4779 7.53336   2
  -7  -8  -8 1.10813 3.51265   1
  -7  -8  -8 0.34591 4.56134   3
   7   8   8 -3.8538 3.04021   5
   7   8   8 4.72124 3.46890   4
   7   8   8 7.11346 3.96419   2
  -8  -8  -8 33.2377 9.45960   3
  -8  -8  -8 20.0023 4.46394   1
   8   8   8 16.2232 4.88706   4
   8   8   8 40.4606 9.83418   5
   8   8   8 33.0538 10.1373   2
  -4   9   8 16.8928 5.37530   5
  -4   9   8 21.9686 3.98182   5
  -4   9   8 30.5581 6.90697   1
  -3   9   8 2.59264 2.04247   5
  -3   9   8 4.74440 3.11253   3
  -3   9   8 3.75850 2.83069   1
  -2   9   8 0.41845 2.31059   1
  -2   9   8 3.15895 2.91288   3
  -2   9   8 1.19432 3.14705   2
  -1   9   8 55.3852 7.07317   2
  -1   9   8 51.2181 5.36525   1
   0   9   8 2.94235 2.39395   2
   0   9   8 3.64353 2.13967   1
   1   9   8 -0.3295 1.42640   5
   1   9   8 1.72850 2.17589   2
   1   9   8 4.23285 3.08711   4
   1   9   8 1.22368 1.41638   5
  -2  -9  -8 1.35568 1.86530   1
  -2  -9  -8 2.39491 2.80154   3
   2   9   8 -0.8519 2.01151   2
   2   9   8 0.24186 1.69939   5
   2   9   8 -0.3256 1.61803   5
   2   9   8 0.60580 2.78689   4
  -3  -9  -8 1.66161 2.92252   3
  -3  -9  -8 13.7302 4.18533   1
   3   9   8 6.15600 2.57724   2
   3   9   8 3.90733 1.72920   5
   3   9   8 4.87142 2.96500   4
   3   9   8 4.89522 2.44776   5
  -4  -9  -8 21.4212 6.40569   3
  -4  -9  -8 6.91057 2.57077   1
   4   9   8 10.2778 3.16610   2
   4   9   8 8.51162 2.80920   5
   4   9   8 21.0910 7.14730   4
   4   9   8 10.6466 2.77262   5
  -5  -9  -8 8.37590 3.81053   3
  -5  -9  -8 0.48694 2.61485   1
   5   9   8 0.16655 2.93749   2
   5   9   8 -0.7543 2.19638   5
   5   9   8 3.37551 3.29120   4
  -6  -9  -8 6.87235 4.36853   3
  -6  -9  -8 0.31996 2.87925   1
   6   9   8 -1.7132 2.50907   5
   6   9   8 3.69974 3.49073   2
  -7  -9  -8 28.9928 9.44598   3
  -7  -9  -8 24.3571 6.82199   1
   7   9   8 36.4452 9.68067   4
   7   9   8 16.6824 4.27055   5
  -3  10   8 39.8839 9.17229   2
  -3  10   8 29.0149 6.79681   1
  -2  10   8 67.8402 6.86923   3
  -2  10   8 65.1656 7.03460   1
  -2  10   8 79.3547 8.64832   2
  -1  10   8 49.0834 7.79915   2
  -1  10   8 61.0526 6.68270   1
   0  10   8 72.0262 8.62043   4
   0  10   8 50.0076 5.61621   1
   0  10   8 47.8883 6.38971   2
   1  10   8 0.78367 1.52289   5
   1  10   8 -0.5033 1.52969   5
   1  10   8 1.87148 2.49731   2
   1  10   8 1.92565 3.52247   4
   2  10   8 17.3866 3.66208   5
   2  10   8 15.4929 4.05131   5
   2  10   8 29.0126 5.63098   2
   2  10   8 13.6839 3.80714   4
  -3 -10  -8 12.7168 3.21917   1
   3  10   8 8.15601 2.72557   2
   3  10   8 7.36572 2.32839   5
   3  10   8 7.94113 2.28746   5
   3  10   8 8.76783 3.55983   4
  -4 -10  -8 17.7902 4.56957   3
  -4 -10  -8 31.5651 5.89294   1
   4  10   8 27.5136 6.37036   2
   4  10   8 23.8622 5.28670   4
   4  10   8 25.0963 5.12736   5
  -5 -10  -8 36.1702 8.40216   3
  -5 -10  -8 47.7633 7.61259   1
   5  10   8 33.3749 6.36511   5
   5  10   8 26.2998 7.57044   4
   5  10   8 45.5309 8.01187   2
  -6 -10  -8 29.2495 8.11841   1
  -6 -10  -8 16.8194 5.57516   3
   6  10   8 16.7777 4.00651   5
   6  10   8 12.0023 4.47173   2
  -2  11   8 2.72338 3.65999   1
  -2  11   8 8.29750 5.34943   4
  -2  11   8 5.06193 4.13134   3
  -2  11   8 7.13361 4.34322   2
  -1  11   8 4.67640 3.39744   1
  -1  11   8 3.21847 3.62985   3
  -1  11   8 -0.1802 3.14826   2
  -1  11   8 -4.6880 4.16112   4
   0  11   8 -4.4037 3.44670   4
   0  11   8 -1.3720 2.59690   1
   0  11   8 -0.2161 3.00842   2
   1  11   8 5.49295 3.69413   4
   1  11   8 5.54416 2.99316   2
   2  11   8 11.9326 2.62827   5
   2  11   8 11.2773 4.13100   4
   2  11   8 10.7564 2.28786   5
   2  11   8 10.5269 3.32857   2
  -3 -11  -8 -1.5741 3.09693   1
   3  11   8 2.95367 3.50398   2
   3  11   8 -2.1331 2.09556   5
   3  11   8 -6.4218 3.49495   4
  -4 -11  -8 10.0214 3.67515   1
   4  11   8 1.37240 2.84855   5
   4  11   8 7.21094 4.42693   4
   4  11   8 4.58107 3.42345   2
  -5 -11  -8 -0.4269 3.85688   1
   5  11   8 0.21707 4.10040   2
   5  11   8 -4.4477 2.81467   5
   5  11   8 -4.7277 4.21294   4
   0  12   8 -0.3352 3.94296   2
   0  12   8 3.96683 4.44249   3
   0  12   8 6.26466 5.21372   4
   0  12   8 -2.0598 3.40065   1
   1  12   8 69.5052 10.6697   4
   1  12   8 74.2393 8.89234   2
   2  12   8 3.28314 3.76664   2
   2  12   8 10.3038 2.88044   5
   2  12   8 5.97211 4.62599   4
   2  12   8 13.2752 2.64976   5
  -3 -12  -8 86.4069 8.05542   1
   3  12   8 106.222 11.4007   4
   3  12   8 90.1711 6.58157   5
   3  12   8 72.9545 9.19294   2
  -4 -12  -8 -2.7988 4.46370   1
   4  12   8 -6.1268 3.69577   2
   4  12   8 -1.1053 3.09199   5
   4  12   8 8.34217 4.79046   4
   1   9  -9 51.7208 11.5015   4
   1   9  -9 52.0146 10.7493   5
   1   9  -9 51.9292 10.9985   3
   0   9  -9 9.82460 5.91544   3
   0   9  -9 16.5877 5.18508   5
  -1   9  -9 10.2620 5.99581   3
  -1   9  -9 -0.9742 4.67322   5
  -1   9  -9 -2.5279 4.24503   1
   3   8  -9 -7.8134 4.75847   4
   3   8  -9 6.01469 5.29001   5
   3   8  -9 5.12884 5.83692   3
  -3  -8   9 0.01543 3.69869   1
   2   8  -9 3.37877 4.75281   5
   2   8  -9 15.6353 5.82867   3
   2   8  -9 40.6110 9.91692   4
   1   8  -9 133.843 11.2525   4
   1   8  -9 111.970 10.6645   5
   1   8  -9 106.067 10.4884   3
   0   8  -9 15.4370 4.65686   3
   0   8  -9 20.6905 4.80131   4
   0   8  -9 37.1183 9.17210   5
  -1   8  -9 5.21103 5.20128   3
  -1   8  -9 -4.6014 3.22745   1
  -1   8  -9 -1.1668 4.75053   4
  -1   8  -9 -6.4301 3.76753   5
  -2   8  -9 3.14081 3.92362   5
  -2   8  -9 5.12700 4.82213   3
  -2   8  -9 -5.5466 3.41069   1
  -3   8  -9 -2.7933 4.82261   3
  -3   8  -9 6.18738 3.94950   5
   4   7  -9 3.23213 5.24812   4
   4   7  -9 2.85925 4.76864   3
  -4  -7   9 -1.5646 3.74757   1
   3   7  -9 -1.6152 4.23233   3
   3   7  -9 -6.5023 3.85487   5
   3   7  -9 -6.7395 3.95533   4
  -3  -7   9 -1.9481 3.04490   1
   2   7  -9 96.4022 9.60021   4
   2   7  -9 73.7704 8.91918   3
   2   7  -9 61.1606 8.80155   5
   1   7  -9 8.58026 4.03533   4
   1   7  -9 -3.3564 3.55600   3
   1   7  -9 0.17548 3.82667   5
   0   7  -9 59.5271 8.18106   5
   0   7  -9 49.7315 7.68141   4
   0   7  -9 48.5737 7.99033   3
   0  -7   9 46.4575 5.73670   2
  -1   7  -9 3.33775 2.83655   1
  -1   7  -9 7.41039 3.11560   4
  -1   7  -9 4.28261 3.89310   3
  -1   7  -9 3.03398 3.15853   5
   1  -7   9 4.08644 2.78899   2
  -2   7  -9 21.5700 7.01354   5
  -2   7  -9 3.22069 3.99387   3
  -2   7  -9 4.31569 3.25588   1
   2  -7   9 0.59564 2.78821   2
  -3   7  -9 19.5622 4.64125   3
  -3   7  -9 13.6118 4.04658   1
  -3   7  -9 37.6122 8.20949   5
   3  -7   9 24.9485 6.86456   2
  -4   7  -9 11.8277 5.36800   3
  -4   7  -9 13.0065 4.27825   5
  -4   7  -9 6.60543 3.54419   1
   4  -7   9 14.1177 4.49340   2
   5   6  -9 3.17288 4.97452   4
   5   6  -9 1.01596 5.12398   3
  -5  -6   9 10.1689 4.45798   1
   4   6  -9 38.9276 9.37514   4
   4   6  -9 52.2684 8.25601   3
  -4  -6   9 31.9954 6.34598   1
  -4  -6   9 60.8194 10.1040   5
   3   6  -9 47.4640 8.14070   3
   3   6  -9 24.3592 7.58339   5
   3   6  -9 37.9027 7.76244   4
  -3  -6   9 48.7789 5.68154   2
  -3  -6   9 40.7029 5.86358   1
  -3  -6   9 39.9925 8.91734   5
   2   6  -9 24.7341 6.95876   4
   2   6  -9 28.3317 6.91701   3
  -2  -6   9 25.9364 7.69756   5
   1   6  -9 23.1935 6.78239   4
   1   6  -9 7.01813 3.79335   3
   1   6  -9 6.41285 3.05230   5
  -1  -6   9 7.92784 2.48245   2
   0   6  -9 -0.3071 3.28918   3
   0   6  -9 2.21539 3.12818   4
   0   6  -9 6.14599 3.20690   5
   0  -6   9 -0.1761 2.37615   2
   0  -6   9 -0.0875 3.26652   5
  -1   6  -9 3.76604 2.28422   5
  -1   6  -9 6.52051 2.91008   4
  -1   6  -9 8.32188 3.51107   3
  -1   6  -9 16.6551 5.08819   1
   1  -6   9 5.38660 2.59908   2
   1  -6   9 5.17882 3.11575   5
  -2   6  -9 46.3091 7.18887   3
  -2   6  -9 42.3422 6.49912   5
  -2   6  -9 45.9961 6.43868   1
  -2   6  -9 46.1825 5.15891   4
   2  -6   9 42.4268 6.33133   2
  -3   6  -9 15.2375 4.23634   5
  -3   6  -9 14.2613 4.45670   3
  -3   6  -9 17.4572 5.77472   1
   3  -6   9 12.6982 3.23755   2
  -4   6  -9 8.52389 4.37015   3
  -4   6  -9 10.2607 3.81695   1
  -4   6  -9 4.70773 3.46303   5
   4  -6   9 28.1896 7.29477   2
  -5   6  -9 -5.8209 4.53569   3
  -5   6  -9 -0.1857 3.78130   1
  -5   6  -9 4.48896 4.30008   5
   5  -6   9 2.94062 4.16182   2
   5   5  -9 -1.9906 3.94717   4
  -5  -5   9 2.39631 3.38753   1
  -5  -5   9 7.90093 5.03976   5
  -5  -5   9 -1.9604 3.38255   2
   4   5  -9 -0.8495 3.29688   4
   4   5  -9 -4.1934 3.79293   3
  -4  -5   9 0.65335 2.94845   2
  -4  -5   9 5.14298 4.31756   5
  -4  -5   9 -4.3796 2.44803   1
   3   5  -9 76.8267 8.26965   4
   3   5  -9 65.4163 7.03194   3
  -3  -5   9 65.6873 6.07844   2
  -3  -5   9 56.1252 7.67655   5
  -3  -5   9 66.2010 5.61437   1
   2   5  -9 1.25361 2.79316   4
   2   5  -9 -1.2371 2.59819   5
   2   5  -9 1.47728 3.30323   3
  -2  -5   9 -0.8752 2.07018   2
  -2  -5   9 0.46947 3.22664   5
  -2  -5   9 0.76279 1.91008   1
   1   5  -9 31.8304 5.99614   3
   1   5  -9 31.4313 6.29589   5
   1   5  -9 23.5057 5.65313   4
  -1  -5   9 17.9629 5.64033   5
  -1  -5   9 16.8835 4.58304   2
   0   5  -9 1.76875 2.40624   4
   0   5  -9 0.72250 2.81417   3
   0   5  -9 -6.6149 3.36553   1
   0   5  -9 4.47728 2.82560   5
   0  -5   9 0.41228 1.93714   2
   0  -5   9 -0.5553 2.41819   5
  -1   5  -9 48.6659 4.86257   1
  -1   5  -9 34.8482 6.08337   3
  -1   5  -9 44.1309 6.82165   1
  -1   5  -9 43.5138 5.67848   4
  -1   5  -9 35.3983 5.82204   5
   1  -5   9 33.0293 5.03210   2
  -2   5  -9 5.22938 2.18419   4
  -2   5  -9 7.83210 3.57412   3
  -2   5  -9 -1.0526 2.57826   5
  -2   5  -9 3.63739 2.34333   1
   2  -5   9 0.75156 2.65470   5
   2  -5   9 7.72023 2.86138   2
  -3   5  -9 21.8859 6.19703   5
  -3   5  -9 24.8556 5.12479   1
  -3   5  -9 24.2526 6.15604   3
   3  -5   9 26.9647 5.91600   2
  -4   5  -9 6.92977 3.75376   3
  -4   5  -9 2.37282 2.62067   1
  -4   5  -9 -0.1548 3.13665   5
   4  -5   9 1.20475 3.00513   2
  -5   5  -9 2.05840 3.78008   3
  -5   5  -9 3.93183 3.32828   1
  -5   5  -9 -0.0532 3.40139   5
   5  -5   9 2.60465 3.57055   2
  -6   5  -9 41.8144 9.49677   5
  -6   5  -9 20.3340 4.80546   1
  -6   5  -9 21.2437 5.70350   3
   6  -5   9 16.2361 4.94995   2
   6   4  -9 30.8279 10.1115   4
  -6  -4   9 4.94851 3.66242   1
  -6  -4   9 -1.8863 4.80556   5
  -6  -4   9 -0.9231 4.07273   2
   5   4  -9 -5.2049 3.25963   3
   5   4  -9 4.80400 3.87631   4
  -5  -4   9 4.26984 2.95203   1
  -5  -4   9 0.05668 3.25754   2
  -5  -4   9 6.42534 4.39458   5
   4   4  -9 67.2315 6.72200   3
   4   4  -9 86.4062 8.76825   4
  -4  -4   9 71.1243 5.74972   1
  -4  -4   9 83.1503 8.56424   5
  -4  -4   9 74.7638 7.11264   2
   3   4  -9 3.91755 2.99903   5
   3   4  -9 9.60976 3.30662   4
   3   4  -9 13.5541 3.35766   3
  -3  -4   9 14.1720 3.81703   1
  -3  -4   9 6.55047 2.58536   2
  -3  -4   9 10.7841 2.97284   5
   2   4  -9 2.88914 2.62929   3
   2   4  -9 3.17585 2.72773   5
  -2  -4   9 5.62809 2.22380   2
  -2  -4   9 2.44060 1.68909   1
  -2  -4   9 6.78959 3.21099   5
   1   4  -9 3.42222 2.15876   1
   1   4  -9 0.33274 2.55855   3
   1   4  -9 2.45887 2.77229   4
   1   4  -9 3.68258 2.72845   5
  -1  -4   9 3.91213 2.69454   5
  -1  -4   9 -0.6642 1.69990   2
  -1  -4   9 7.54529 3.46829   2
   0   4  -9 4.61377 2.08115   1
   0   4  -9 3.62857 2.52934   4
   0   4  -9 5.75138 1.84481   1
   0   4  -9 5.72308 2.50565   3
   0   4  -9 4.46546 2.37384   5
   0  -4   9 6.34748 2.43575   5
   0  -4   9 5.15176 2.24698   2
  -1   4  -9 66.3630 5.97004   5
  -1   4  -9 58.2666 5.10361   1
  -1   4  -9 55.7465 4.42432   1
  -1   4  -9 52.6282 5.90698   3
  -1   4  -9 62.7958 5.57741   4
   1  -4   9 55.2816 5.95076   5
   1  -4   9 53.5657 5.08498   2
  -2   4  -9 28.4063 4.08334   1
  -2   4  -9 27.1007 4.24718   4
  -2   4  -9 23.4419 5.51145   1
  -2   4  -9 24.5675 5.24243   3
  -2   4  -9 27.3236 5.53108   5
   2  -4   9 25.0922 4.59060   5
   2  -4   9 26.9701 5.06562   2
   2  -4   9 33.3409 6.24760   4
  -3   4  -9 29.6254 4.06969   4
  -3   4  -9 30.5296 4.69259   1
  -3   4  -9 26.7084 6.01021   5
  -3   4  -9 32.0639 5.65173   3
   3  -4   9 47.4466 6.49309   5
   3  -4   9 43.3504 5.86766   2
  -4   4  -9 -2.6025 3.09985   3
  -4   4  -9 0.05190 2.45930   1
  -4   4  -9 0.30334 3.05130   5
   4  -4   9 1.97964 3.04798   2
  -5   4  -9 21.0323 6.81103   3
  -5   4  -9 11.5528 3.46229   1
  -5   4  -9 21.8023 7.21396   5
   5  -4   9 9.92075 3.29084   2
  -6   4  -9 -5.8411 3.29236   5
  -6   4  -9 0.93555 4.21166   3
  -6   4  -9 -1.0150 3.53995   1
   6  -4   9 6.10275 4.13444   2
   6   3  -9 -4.7715 4.03653   4
  -6  -3   9 2.15915 4.19926   2
  -6  -3   9 2.15683 5.08140   5
  -6  -3   9 -0.0449 2.93281   1
   5   3  -9 -0.0209 4.67618   3
   5   3  -9 -0.6740 3.43785   4
  -5  -3   9 5.85149 3.41111   2
  -5  -3   9 1.60658 2.37782   1
  -5  -3   9 3.46873 3.49801   5
   4   3  -9 9.26058 3.08680   3
   4   3  -9 17.6433 6.17368   4
  -4  -3   9 10.0722 3.21026   5
  -4  -3   9 14.9096 4.11686   1
  -4  -3   9 8.30458 3.03206   2
   3   3  -9 4.86336 2.44720   3
   3   3  -9 16.9442 5.90103   4
   3   3  -9 3.51104 3.08517   5
  -3  -3   9 5.47072 1.88326   1
  -3  -3   9 3.92447 2.74387   5
  -3  -3   9 5.29883 6.56301   5
  -3  -3   9 5.25505 2.48827   2
   2   3  -9 -0.4012 2.19226   4
   2   3  -9 -1.8537 2.45169   3
   2   3  -9 0.17403 2.20470   1
   2   3  -9 -0.0001 2.64031   5
  -2  -3   9 -0.2307 1.36627   1
  -2  -3   9 -2.2652 2.05722   5
  -2  -3   9 -0.0052 1.90382   2
  -2  -3   9 0.28250 3.40456   5
   1   3  -9 4.83570 2.40558   4
   1   3  -9 -0.9803 2.19432   3
   1   3  -9 3.46062 1.81205   1
  -1  -3   9 0.69106 1.89311   2
  -1  -3   9 1.18868 2.03389   5
  -1  -3   9 -0.2279 3.18354   5
   0   3  -9 4.36351 1.81906   1
   0   3  -9 4.12676 1.45489   1
   0   3  -9 4.22660 2.26247   4
   0   3  -9 5.74535 2.47290   5
   0   3  -9 1.72051 2.54848   3
   0  -3   9 7.26674 2.24282   2
   0  -3   9 -0.6412 2.27091   5
   0  -3   9 3.71409 2.31736   5
  -1   3  -9 0.57884 2.34707   3
  -1   3  -9 3.76546 2.07837   4
  -1   3  -9 0.79637 1.45205   1
  -1   3  -9 -0.0942 1.71649   1
  -1   3  -9 0.38118 2.02603   5
   1  -3   9 0.78832 1.82687   2
   1  -3   9 0.33019 1.70765   5
   1  -3   9 -0.0088 2.59048   5
  -2   3  -9 3.00620 2.08988   4
  -2   3  -9 0.33197 1.40215   1
  -2   3  -9 1.04413 1.77967   5
  -2   3  -9 4.18488 2.69573   3
  -2   3  -9 -1.8488 2.07703   1
   2  -3   9 2.94987 2.16278   5
   2  -3   9 -3.5115 2.84334   4
   2  -3   9 12.8238 4.53237   2
  -3   3  -9 84.5903 5.23390   1
  -3   3  -9 80.5714 6.62524   1
  -3   3  -9 93.7844 6.92143   5
  -3   3  -9 79.6687 5.35098   4
  -3   3  -9 82.9057 6.79518   3
   3  -3   9 86.5097 6.67879   4
   3  -3   9 89.5697 7.04164   5
   3  -3   9 84.0248 6.48596   2
  -4   3  -9 14.0229 3.35553   5
  -4   3  -9 27.7507 5.49694   3
  -4   3  -9 24.5821 4.70544   1
   4  -3   9 13.8477 2.91453   2
  -5   3  -9 4.24326 3.53170   3
  -5   3  -9 0.19784 2.60431   5
  -5   3  -9 -0.4495 2.62212   1
   5  -3   9 -0.7833 2.80959   2
   5  -3   9 -4.2772 2.14323   4
   5  -3   9 5.48521 4.01431   5
  -6   3  -9 -0.7738 3.08190   1
  -6   3  -9 4.30710 3.75963   5
  -6   3  -9 3.21585 4.21751   3
   6  -3   9 0.89477 3.33050   2
  -7   3  -9 0.27446 3.72282   1
  -7   3  -9 -0.9790 4.42535   3
  -7   3  -9 -4.7043 4.20180   5
   7  -3   9 -2.2608 3.80299   2
  -6  -2   9 0.85790 3.00663   1
  -5  -2   9 1.10704 3.56715   5
  -5  -2   9 5.38085 3.35482   2
  -5  -2   9 0.65177 2.24491   1
   4   2  -9 23.4931 4.18581   3
   4   2  -9 37.1292 6.80655   4
  -4  -2   9 29.5491 5.56957   2
  -4  -2   9 24.8534 3.81460   1
   3   2  -9 43.5834 4.49269   1
   3   2  -9 48.7733 4.83092   3
   3   2  -9 45.5312 6.41876   4
   3   2  -9 55.6427 5.83257   5
  -3  -2   9 53.1018 3.69556   1
  -3  -2   9 54.8099 5.98754   5
  -3  -2   9 62.9638 6.94428   5
  -3  -2   9 42.6449 6.18098   3
  -3  -2   9 45.3445 5.71009   2
   2   2  -9 -0.3986 1.86167   5
   2   2  -9 1.33422 2.32671   4
   2   2  -9 0.98722 1.57276   1
   2   2  -9 0.05510 2.12630   3
  -2  -2   9 0.57358 1.77192   2
  -2  -2   9 1.41912 2.01111   5
  -2  -2   9 0.81410 1.17875   1
  -2  -2   9 -2.5265 2.83794   5
   1   2  -9 0.98463 2.06710   3
   1   2  -9 -0.0873 2.02098   5
   1   2  -9 2.54720 2.06368   4
  -1  -2   9 0.72260 1.68767   2
  -1  -2   9 -2.2634 1.67384   5
  -1  -2   9 -3.0803 2.70025   5
   0   2  -9 13.2246 2.57792   4
   0   2  -9 15.8391 3.92384   3
   0   2  -9 22.8205 3.82192   5
   0  -2   9 15.6021 3.71083   2
   0  -2   9 10.7274 2.69055   5
   0  -2   9 16.1846 4.07212   5
  -1   2  -9 24.2809 2.52623   1
  -1   2  -9 22.1627 2.66598   1
  -1   2  -9 20.0106 4.19774   4
  -1   2  -9 24.2097 4.29274   5
  -1   2  -9 21.6428 4.09039   3
   1  -2   9 29.7617 4.73031   5
   1  -2   9 27.7613 4.40921   2
   1  -2   9 17.0666 4.91121   5
  -2   2  -9 3.47753 1.35814   1
  -2   2  -9 2.92833 2.04674   3
  -2   2  -9 3.74033 1.83174   4
  -2   2  -9 3.55675 2.40756   5
  -2   2  -9 3.10607 1.61315   1
   2  -2   9 4.87266 2.33632   5
   2  -2   9 5.68528 2.68742   4
   2  -2   9 2.95291 1.80075   2
   2  -2   9 5.90073 2.81414   5
  -3   2  -9 29.7801 4.42368   1
  -3   2  -9 25.2684 4.71208   3
  -3   2  -9 27.7285 3.68115   1
  -3   2  -9 22.1125 4.59467   5
  -3   2  -9 20.4706 3.99887   4
   3  -2   9 15.4193 6.05919   5
   3  -2   9 31.1146 5.70787   4
   3  -2   9 32.8320 5.03904   2
   3  -2   9 18.4212 4.76735   5
  -4   2  -9 1.43591 1.87596   1
  -4   2  -9 3.98076 2.89905   1
  -4   2  -9 4.99123 3.10166   3
  -4   2  -9 -0.2251 2.25051   5
   4  -2   9 2.60436 2.35089   2
   4  -2   9 2.75027 2.65569   4
   4  -2   9 2.35318 2.38125   5
  -5   2  -9 39.9121 6.64896   3
  -5   2  -9 18.3389 5.11290   1
  -5   2  -9 35.8812 6.51021   5
   5  -2   9 33.8942 7.30534   5
   5  -2   9 28.2742 6.19244   2
   5  -2   9 23.4657 4.21514   4
  -6   2  -9 3.97449 4.07335   3
  -6   2  -9 7.83226 3.09925   1
   6  -2   9 4.80953 3.32641   2
   6  -2   9 6.50358 3.79906   5
  -7   2  -9 62.8560 9.44113   5
  -7   2  -9 66.3192 8.26222   1
  -7   2  -9 44.8208 8.43070   3
   6   1  -9 1.83678 3.82239   4
  -6  -1   9 -3.7126 2.51114   1
  -6  -1   9 7.56309 3.97214   5
   5   1  -9 25.5719 6.97671   4
  -5  -1   9 21.8193 4.02105   5
  -5  -1   9 20.1383 4.00634   1
   4   1  -9 14.1788 3.88954   3
   4   1  -9 21.4874 6.22893   4
  -4  -1   9 12.0294 3.02351   1
  -4  -1   9 18.5711 5.56225   5
  -4  -1   9 14.7718 5.07667   2
   3   1  -9 -0.3244 1.64487   1
   3   1  -9 2.10560 2.08945   3
   3   1  -9 0.26663 2.49276   4
  -3  -1   9 -0.1130 1.88372   5
  -3  -1   9 1.13384 3.00853   3
  -3  -1   9 1.07140 2.02932   2
  -3  -1   9 -1.1735 1.39408   1
  -3  -1   9 0.68169 2.93950   5
   2   1  -9 118.356 7.40393   4
   2   1  -9 110.340 6.18071   3
   2   1  -9 101.997 6.30023   5
  -2  -1   9 118.219 6.81609   5
  -2  -1   9 109.385 6.74124   2
  -2  -1   9 113.055 6.91059   5
  -2  -1   9 93.0416 6.75194   3
   1   1  -9 68.6540 4.94325   3
   1   1  -9 67.2110 5.75123   4
   1   1  -9 71.3211 5.25817   5
  -1  -1   9 67.1170 5.34338   5
  -1  -1   9 70.5545 5.34235   5
  -1  -1   9 64.8986 5.21298   2
   0   1  -9 45.4713 4.33612   3
   0   1  -9 48.0856 5.00971   4
   0   1  -9 51.2294 4.09017   5
   0  -1   9 50.0667 4.69544   2
   0  -1   9 45.7719 4.37278   5
   0  -1   9 37.0531 4.67689   5
  -1   1  -9 0.63879 1.73856   3
  -1   1  -9 1.31736 1.77087   4
  -1   1  -9 0.78880 1.73726   5
   1  -1   9 0.79742 1.53846   2
   1  -1   9 -3.4637 1.83601   5
   1  -1   9 1.57773 1.60181   5
  -2   1  -9 2.37942 1.17337   1
  -2   1  -9 2.39172 1.22638   1
  -2   1  -9 4.16764 2.35616   3
  -2   1  -9 5.03365 1.96757   4
  -2   1  -9 4.56993 2.01370   5
   2  -1   9 7.01504 2.54519   4
   2  -1   9 1.49196 1.84606   5
   2  -1   9 3.81887 2.13511   2
   2  -1   9 1.91791 2.17196   5
  -3   1  -9 205.368 7.24971   1
  -3   1  -9 212.325 7.62825   1
  -3   1  -9 206.709 9.56254   3
   3  -1   9 203.499 9.34238   5
   3  -1   9 199.766 9.31388   2
   3  -1   9 192.778 9.28882   4
   3  -1   9 199.755 9.71770   5
  -4   1  -9 163.486 8.93419   3
  -4   1  -9 151.939 6.76397   1
  -4   1  -9 162.740 8.43534   5
   4  -1   9 159.362 8.87453   2
   4  -1   9 157.427 8.06886   5
   4  -1   9 166.838 10.3550   5
   4  -1   9 157.472 8.17825   4
  -5   1  -9 2.71003 3.00737   3
  -5   1  -9 1.81919 1.90107   1
  -5   1  -9 2.80305 2.58717   5
   5  -1   9 3.59811 2.16271   4
   5  -1   9 4.00801 2.76693   2
   5  -1   9 1.51941 2.58400   5
  -6   1  -9 2.22104 2.68466   1
  -6   1  -9 4.67095 3.75764   3
  -6   1  -9 -0.6210 2.99985   5
   6  -1   9 4.07053 3.10630   2
   6  -1   9 1.43036 3.44937   5
   6  -1   9 2.03701 2.19136   4
  -7   1  -9 20.0627 6.73139   1
  -7   1  -9 10.9967 4.61422   5
  -7   1  -9 12.5044 4.50255   3
   7  -1   9 9.79529 3.63689   2
  -8   1  -9 36.8906 8.89369   1
  -8   1  -9 13.6628 5.49322   3
   8  -1   9 7.01773 4.19110   2
   6   0  -9 15.5857 4.84135   4
  -6   0   9 27.2985 5.67352   1
  -6   0   9 15.7262 3.80132   5
   5   0  -9 31.7336 7.39676   4
  -5   0   9 42.6030 6.26480   5
  -5   0   9 26.5909 4.30609   1
   4   0  -9 23.1468 3.55813   3
   4   0  -9 28.3692 6.40496   4
  -4   0   9 20.8925 2.95765   1
  -4   0   9 28.5542 5.54831   5
   3   0  -9 16.2729 4.88416   4
   3   0  -9 7.02549 2.67611   5
   3   0  -9 10.4286 2.44246   3
  -3   0   9 7.52023 2.30089   5
  -3   0   9 14.4134 4.17491   3
  -3   0   9 10.0544 2.93858   2
  -3   0   9 7.55667 2.92866   5
   2   0  -9 149.401 8.29689   4
   2   0  -9 152.052 7.16104   5
   2   0  -9 158.601 7.01172   3
  -2   0   9 153.001 7.40434   5
  -2   0   9 145.635 7.69749   5
  -2   0   9 159.026 8.08807   2
  -2   0   9 151.486 7.10236   3
   1   0  -9 25.9736 3.66735   3
   1   0  -9 20.0144 4.11536   5
   1   0  -9 21.6269 3.99777   4
  -1   0   9 25.4437 3.41370   5
  -1   0   9 20.1301 4.98206   3
  -1   0   9 20.8798 3.74802   2
  -1   0   9 24.4003 3.86856   5
   0   0  -9 10.2925 3.38704   5
   0   0  -9 13.9864 4.02560   4
   0   0  -9 14.1757 3.68682   3
   0   0   9 5.62855 1.91179   2
   0   0   9 6.24434 1.81723   5
   0   0   9 2.36128 1.60243   5
  -1   0  -9 65.4731 5.05733   4
  -1   0  -9 56.8283 4.44542   5
  -1   0  -9 58.3930 5.02501   3
   1   0   9 59.1499 4.77759   2
   1   0   9 45.5746 4.91469   5
   1   0   9 54.9809 4.50009   5
  -2   0  -9 22.8799 3.87433   5
  -2   0  -9 22.5525 4.03200   3
  -2   0  -9 21.5253 3.61768   4
   2   0   9 27.6715 4.08949   2
   2   0   9 17.4374 3.73044   5
   2   0   9 17.5511 4.64036   5
  -3   0  -9 15.0043 2.97034   1
  -3   0  -9 11.3774 2.74492   3
  -3   0  -9 10.5315 2.29600   5
   3   0   9 8.60783 2.96413   4
   3   0   9 19.0048 4.72759   5
   3   0   9 10.0024 2.45550   5
   3   0   9 13.1021 3.74012   2
  -4   0  -9 9.45324 2.64828   5
  -4   0  -9 18.1563 4.34552   3
  -4   0  -9 15.5281 3.19439   1
   4   0   9 27.9014 6.08290   5
   4   0   9 10.9965 2.57188   5
   4   0   9 9.52018 3.12818   4
   4   0   9 18.3472 4.83822   2
  -5   0  -9 3.00573 1.86768   1
  -5   0  -9 -1.2628 2.30418   5
  -5   0  -9 0.86614 2.80705   3
   5   0   9 3.88251 2.37597   5
   5   0   9 4.32828 2.73285   2
   5   0   9 0.43349 1.82585   4
   5   0   9 5.47389 3.06902   4
  -6   0  -9 -2.2876 2.91260   3
  -6   0  -9 3.50446 2.45475   1
  -6   0  -9 1.47189 3.00672   5
   6   0   9 -1.3388 3.24477   5
   6   0   9 1.85771 2.16261   4
   6   0   9 1.31627 2.59651   2
  -7   0  -9 8.39810 3.42024   1
  -7   0  -9 2.60663 4.02168   5
  -7   0  -9 4.72564 3.56457   3
   7   0   9 8.27718 4.13696   5
   7   0   9 9.12727 3.93128   2
  -8   0  -9 15.4610 4.87344   1
   8   0   9 9.07426 3.84158   2
  -6   1   9 24.0367 7.35276   5
  -6   1   9 18.2813 5.50380   1
   5  -1  -9 56.1615 7.61831   4
  -5   1   9 44.9575 5.84300   5
  -5   1   9 58.9983 4.70946   1
   4  -1  -9 14.0994 3.37202   4
  -4   1   9 16.4522 3.08785   1
   3  -1  -9 -0.0638 1.72902   3
   3  -1  -9 1.41701 2.17239   5
   3  -1  -9 1.80112 2.19875   4
  -3   1   9 -0.5932 2.06148   5
  -3   1   9 -0.8028 2.03677   2
  -3   1   9 -1.7344 2.27303   3
  -3   1   9 2.78524 1.95102   5
   2  -1  -9 42.5934 3.98554   3
   2  -1  -9 30.8999 4.65341   4
   2  -1  -9 39.4499 4.28451   5
  -2   1   9 42.6771 4.21776   5
  -2   1   9 34.6112 4.49762   5
  -2   1   9 46.8413 5.15888   2
  -2   1   9 44.0553 4.73655   3
   1  -1  -9 33.0952 3.98939   3
   1  -1  -9 31.7532 4.37709   4
   1  -1  -9 35.9248 3.83204   5
  -1   1   9 30.1701 3.66108   5
  -1   1   9 34.2793 4.58401   3
  -1   1   9 27.1864 4.10069   5
  -1   1   9 33.6791 4.38040   2
   0  -1  -9 47.6004 4.04679   5
   0  -1  -9 46.3229 4.59798   3
   0  -1  -9 51.6872 5.14607   4
   0   1   9 42.0006 4.48495   2
   0   1   9 60.1560 6.25653   3
   0   1   9 53.5644 4.24847   5
   0   1   9 50.0205 4.04853   5
  -1  -1  -9 38.9592 4.47676   3
  -1  -1  -9 39.7221 4.58559   4
  -1  -1  -9 39.9991 4.00435   5
   1   1   9 31.7201 4.35737   5
   1   1   9 31.6050 4.06903   2
   1   1   9 35.2115 3.73304   5
  -2  -1  -9 123.902 6.07176   5
  -2  -1  -9 124.404 6.79865   4
  -2  -1  -9 128.516 7.07612   3
   2   1   9 122.742 7.06393   2
   2   1   9 120.064 6.38961   5
   2   1   9 119.549 6.85290   5
  -3  -1  -9 309.199 11.9364   3
  -3  -1  -9 295.988 10.8193   5
  -3  -1  -9 305.875 8.89742   1
   3   1   9 296.767 11.8875   2
   3   1   9 305.216 11.2304   5
   3   1   9 307.025 11.4190   5
  -4  -1  -9 14.3779 4.54941   3
  -4  -1  -9 15.8560 4.12558   5
   4   1   9 16.4083 5.35948   5
   4   1   9 13.8613 4.43925   2
   4   1   9 11.6732 3.93041   5
  -5  -1  -9 -1.8150 2.72915   3
  -5  -1  -9 -1.4592 2.35544   5
  -5  -1  -9 1.09916 1.86184   1
   5   1   9 3.93676 2.79814   1
   5   1   9 5.41161 3.32009   5
   5   1   9 1.21847 1.85376   4
   5   1   9 3.87673 2.52810   5
   5   1   9 0.02204 2.39915   2
  -6  -1  -9 75.0821 7.35345   5
  -6  -1  -9 68.6283 6.30002   1
  -6  -1  -9 82.8040 7.36070   3
   6   1   9 69.9436 6.28791   4
   6   1   9 76.7277 7.00492   2
   6   1   9 89.7360 7.96795   5
  -7  -1  -9 92.1503 7.67598   1
  -7  -1  -9 103.443 10.6631   5
  -7  -1  -9 97.4186 8.62779   3
   7   1   9 95.1581 10.0704   5
   7   1   9 82.1339 6.68440   4
   7   1   9 80.9817 8.56105   2
  -8  -1  -9 37.3836 7.93896   1
  -8  -1  -9 61.5658 9.84147   3
   8   1   9 63.3832 9.09017   2
   6  -2  -9 16.9746 4.59498   4
  -6   2   9 13.9867 3.60222   5
  -6   2   9 10.2771 2.88222   1
   5  -2  -9 25.4334 7.00729   4
  -5   2   9 26.5032 4.28138   1
  -5   2   9 43.0303 6.12974   5
   4  -2  -9 95.0740 7.64682   4
  -4   2   9 95.4616 4.77413   1
  -4   2   9 116.453 6.88996   5
   3  -2  -9 7.08424 2.50440   4
   3  -2  -9 4.67314 2.35179   5
   3  -2  -9 11.3393 3.21386   3
  -3   2   9 6.34867 2.20422   5
  -3   2   9 6.24414 1.77403   5
  -3   2   9 4.05631 2.23052   3
   2  -2  -9 199.568 7.79016   3
   2  -2  -9 203.998 9.72405   4
   2  -2  -9 195.092 7.27892   5
  -2   2   9 193.815 7.97289   5
  -2   2   9 192.396 7.99277   3
  -2   2   9 194.933 8.06051   5
  -2   2   9 209.410 9.59092   2
   1  -2  -9 3.07185 1.86804   3
   1  -2  -9 4.20141 1.73654   5
   1  -2  -9 0.70133 1.71969   4
  -1   2   9 2.62754 1.44311   5
  -1   2   9 2.18221 1.55485   5
  -1   2   9 3.29763 1.83217   2
  -1   2   9 0.23538 2.47916   3
   0  -2  -9 290.361 11.4255   4
   0  -2  -9 292.169 9.43973   5
   0  -2  -9 301.342 10.7260   3
   0   2   9 292.560 11.3489   2
   0   2   9 279.645 10.6898   3
   0   2   9 289.835 10.2519   5
   0   2   9 284.913 9.96620   5
  -1  -2  -9 125.737 5.49325   5
  -1  -2  -9 122.139 6.89383   4
  -1  -2  -9 121.555 6.59425   3
   1   2   9 118.370 6.81924   2
   1   2   9 113.776 5.83057   5
   1   2   9 118.363 6.13653   5
  -2  -2  -9 445.070 13.8591   5
  -2  -2  -9 467.619 15.6489   4
  -2  -2  -9 454.778 15.4638   3
   2   2   9 461.847 15.8140   2
   2   2   9 454.914 14.6716   5
   2   2   9 466.719 14.6136   5
  -3  -2  -9 45.4417 5.04388   3
  -3  -2  -9 38.5964 2.53497   1
   3   2   9 37.8895 4.31014   5
   3   2   9 37.2829 4.50871   2
   3   2   9 43.9823 4.76067   5
  -4  -2  -9 5.15932 2.40562   5
  -4  -2  -9 6.07525 1.52910   1
  -4  -2  -9 13.9466 4.11988   3
   4   2   9 12.9289 4.43736   2
   4   2   9 6.13778 1.92641   1
   4   2   9 5.45194 2.77700   5
  -5  -2  -9 84.2593 5.17241   1
  -5  -2  -9 85.6444 6.63451   3
  -5  -2  -9 86.4891 6.34484   5
   5   2   9 84.8249 6.15456   4
   5   2   9 75.6861 6.45735   1
   5   2   9 81.5801 6.76423   2
   5   2   9 92.9267 7.63545   5
   5   2   9 87.7885 7.04853   5
  -6  -2  -9 -0.4309 2.19309   1
  -6  -2  -9 2.99123 3.01020   3
  -6  -2  -9 -0.6893 3.07033   5
   6   2   9 -0.6080 2.93313   5
   6   2   9 -2.7992 2.26921   4
   6   2   9 -3.1512 2.11945   2
  -7  -2  -9 63.2305 8.19279   3
  -7  -2  -9 42.0079 6.03256   1
   7   2   9 68.7632 9.04962   5
   7   2   9 43.0703 7.14124   2
   7   2   9 40.1312 6.06946   4
  -8  -2  -9 2.20329 3.62029   1
  -8  -2  -9 0.72822 4.61424   3
   8   2   9 -0.7509 4.66626   5
   8   2   9 -1.9522 3.03355   4
   6  -3  -9 1.15023 3.79662   4
  -6   3   9 5.01071 3.21449   5
  -6   3   9 2.42825 4.24716   1
   5  -3  -9 40.4391 7.07959   4
  -5   3   9 30.3656 4.33188   1
  -5   3   9 34.6083 5.57467   5
   4  -3  -9 0.24614 2.47172   4
  -4   3   9 2.02601 1.60620   1
  -4   3   9 1.70046 1.92325   5
   3  -3  -9 34.1022 5.73679   4
   3  -3  -9 21.2461 3.57214   3
  -3   3   9 29.2381 4.01889   3
  -3   3   9 26.5009 4.41177   5
  -3   3   9 23.1804 3.97119   5
   2  -3  -9 1.57373 1.56890   5
   2  -3  -9 4.75876 2.06152   3
   2  -3  -9 0.52746 2.09098   4
  -2   3   9 -3.4312 2.36902   3
  -2   3   9 1.35642 1.67296   5
  -2   3   9 0.74904 1.25105   5
  -2   3   9 3.21384 2.12234   2
   1  -3  -9 66.0190 5.84310   4
   1  -3  -9 64.6504 4.83903   3
   1  -3  -9 62.3345 3.69679   5
  -1   3   9 68.8703 4.43076   5
  -1   3   9 55.6945 5.62264   3
  -1   3   9 57.5385 4.24054   5
  -1   3   9 58.5063 5.63909   2
   0  -3  -9 338.482 10.2320   5
   0  -3  -9 347.529 12.1275   3
   0  -3  -9 356.295 13.1548   4
   0   3   9 351.171 12.4773   3
   0   3   9 348.553 11.5660   5
   0   3   9 348.326 13.0457   2
   0   3   9 346.946 11.3329   5
  -1  -3  -9 1.58372 1.89870   4
  -1  -3  -9 1.50390 1.83672   3
  -1  -3  -9 1.01855 1.43309   5
   1   3   9 0.64475 1.53128   5
   1   3   9 -0.3323 1.46856   2
   1   3   9 0.95979 1.18818   5
  -2  -3  -9 37.2651 4.31780   3
  -2  -3  -9 36.1103 3.65181   5
   2   3   9 33.9165 4.01365   5
   2   3   9 27.5132 4.00350   2
   2   3   9 25.9640 4.10490   5
  -3  -3  -9 240.368 10.1870   3
  -3  -3  -9 230.785 8.57287   5
  -3  -3  -9 222.460 6.99714   1
   3   3   9 227.799 10.2208   2
   3   3   9 243.363 9.51043   5
   3   3   9 226.769 7.09860   1
   3   3   9 229.450 9.18350   5
  -4  -3  -9 50.2162 3.43652   1
  -4  -3  -9 47.8780 5.02867   5
  -4  -3  -9 50.5647 5.38218   3
   4   3   9 48.1293 5.14489   2
   4   3   9 50.4445 4.36719   1
   4   3   9 41.5449 5.72958   5
  -5  -3  -9 -1.3458 2.47955   5
  -5  -3  -9 2.11675 2.67571   3
  -5  -3  -9 -0.7473 1.77313   1
   5   3   9 -1.5801 2.91511   5
   5   3   9 -4.0943 2.66773   1
   5   3   9 1.63825 2.11850   4
   5   3   9 0.46811 2.32693   5
   5   3   9 4.02292 2.41587   2
  -6  -3  -9 122.846 6.98148   1
  -6  -3  -9 118.991 8.47772   3
  -6  -3  -9 122.883 8.17774   5
   6   3   9 111.020 7.97652   5
   6   3   9 107.144 8.54728   2
   6   3   9 109.210 7.66477   4
  -7  -3  -9 39.1334 5.78461   1
  -7  -3  -9 43.2983 7.59560   3
   7   3   9 39.0529 6.28049   4
   7   3   9 62.9152 7.67255   2
   7   3   9 52.5849 7.71564   5
  -8  -3  -9 6.78895 4.92548   3
  -8  -3  -9 0.14143 3.26642   1
   8   3   9 11.4580 5.08853   5
   8   3   9 5.94286 4.34203   2
   8   3   9 6.25786 3.72364   4
   6  -4  -9 -0.9472 4.12572   4
  -6   4   9 7.12548 3.77205   5
   5  -4  -9 0.33002 3.28289   4
  -5   4   9 -2.6727 2.37592   1
  -5   4   9 -1.2129 2.12054   5
   4  -4  -9 11.0608 3.54350   4
  -4   4   9 16.8118 3.79033   1
  -4   4   9 17.1813 3.79969   5
   3  -4  -9 5.50430 2.08616   3
   3  -4  -9 2.12256 2.53380   4
  -3   4   9 1.77764 1.57187   5
  -3   4   9 2.27780 1.90272   5
   2  -4  -9 39.5819 5.38963   4
   2  -4  -9 41.9344 4.11913   3
  -2   4   9 41.4353 3.54394   5
  -2   4   9 34.5947 5.14194   3
  -2   4   9 48.1803 5.68824   2
  -2   4   9 39.1361 3.73121   5
   1  -4  -9 118.541 7.41682   4
   1  -4  -9 117.313 6.23177   3
  -1   4   9 127.175 7.49344   2
  -1   4   9 117.727 5.67177   5
  -1   4   9 119.828 7.08416   3
  -1   4   9 123.511 5.75916   5
   0  -4  -9 -2.0516 1.63632   4
   0  -4  -9 -1.5014 1.96537   3
   0   4   9 -0.1970 1.45289   2
   0   4   9 0.42014 1.11304   5
   0   4   9 0.14255 1.25308   5
  -1  -4  -9 19.2825 3.97008   4
  -1  -4  -9 17.8197 3.75057   3
  -1  -4  -9 24.9370 2.84572   5
   1   4   9 22.8083 3.38572   5
   1   4   9 22.1017 3.93663   2
   1   4   9 20.8162 3.23967   5
  -2  -4  -9 103.721 6.46867   3
  -2  -4  -9 98.6389 4.92536   5
   2   4   9 98.8437 6.53371   2
   2   4   9 101.477 5.49476   5
   2   4   9 94.6048 5.68423   5
  -3  -4  -9 -0.7431 1.03867   1
  -3  -4  -9 0.98840 1.79983   5
  -3  -4  -9 -0.5867 2.24663   3
   3   4   9 -1.3737 1.30805   1
   3   4   9 -1.1095 1.43051   5
   3   4   9 -0.5117 1.99702   5
   3   4   9 -2.3253 1.51373   2
  -4  -4  -9 5.61300 2.21971   5
  -4  -4  -9 5.90138 2.90250   3
   4   4   9 -1.1271 2.46359   5
   4   4   9 2.85710 2.20060   4
   4   4   9 5.77618 2.64306   2
   4   4   9 4.78066 1.84966   1
   4   4   9 3.61764 2.24373   5
  -5  -4  -9 31.8322 3.98802   1
  -5  -4  -9 16.6863 5.19241   3
  -5  -4  -9 22.9011 5.30628   5
   5   4   9 29.4525 5.49159   4
   5   4   9 17.9273 5.61891   1
   5   4   9 28.7510 5.33568   5
   5   4   9 31.1398 5.63119   2
   5   4   9 28.0048 6.88858   5
  -6  -4  -9 119.428 6.90221   1
  -6  -4  -9 116.919 8.65123   3
   6   4   9 115.112 8.22546   2
   6   4   9 113.632 8.17601   4
   6   4   9 139.747 9.02214   5
  -7  -4  -9 7.50203 3.81845   3
  -7  -4  -9 10.5963 3.08185   1
   7   4   9 8.46577 3.48316   4
   7   4   9 8.24048 3.42808   2
   7   4   9 3.20256 3.59504   5
  -8  -4  -9 43.4139 8.95372   3
  -8  -4  -9 54.9194 7.84442   1
   8   4   9 59.6664 8.97357   2
   8   4   9 30.9616 8.55366   5
   5  -5  -9 5.65021 4.04332   4
  -5   5   9 3.85265 2.85811   1
  -5   5   9 1.07906 2.35935   5
   4  -5  -9 -1.1704 2.80579   4
  -4   5   9 0.90927 1.76161   5
  -4   5   9 1.69234 1.88500   1
   3  -5  -9 3.16626 2.70014   4
  -3   5   9 -0.8280 1.47655   5
  -3   5   9 0.74205 1.53400   1
   2  -5  -9 2.48302 2.51308   4
   2  -5  -9 4.71885 2.28076   3
  -2   5   9 4.00647 3.10569   3
  -2   5   9 3.07126 1.31971   5
  -2   5   9 3.33539 1.35096   1
  -2   5   9 2.02414 1.81951   5
  -2   5   9 2.48921 2.39438   2
   1  -5  -9 8.50259 2.44345   4
   1  -5  -9 6.91788 2.44167   3
  -1   5   9 6.77413 1.79630   5
  -1   5   9 14.6663 4.30163   2
  -1   5   9 6.78387 2.28441   5
  -1   5   9 6.09922 3.37320   3
   0  -5  -9 4.37290 2.14492   3
   0  -5  -9 0.79933 2.04647   4
   0   5   9 1.69471 1.35744   5
   0   5   9 0.43942 1.77492   2
   0   5   9 1.33266 1.59583   5
  -1  -5  -9 32.1392 4.56655   3
   1   5   9 34.6384 3.39850   5
   1   5   9 39.0173 3.61377   5
   1   5   9 41.1977 4.58627   2
  -2  -5  -9 37.2683 4.74565   3
  -2  -5  -9 39.3375 2.92977   5
   2   5   9 38.3354 4.67482   2
   2   5   9 38.5966 4.05865   5
   2   5   9 34.5348 3.62786   5
  -3  -5  -9 246.973 8.51485   1
  -3  -5  -9 261.961 8.61241   5
  -3  -5  -9 270.926 11.0956   3
   3   5   9 266.804 9.81821   5
   3   5   9 245.548 9.55461   5
   3   5   9 252.835 8.33484   1
   3   5   9 268.799 11.3104   2
  -4  -5  -9 221.540 10.2235   3
  -4  -5  -9 221.048 8.54874   5
  -4  -5  -9 212.809 7.86039   1
   4   5   9 220.965 9.60856   5
   4   5   9 225.549 9.46302   5
   4   5   9 212.036 8.36127   1
   4   5   9 229.780 10.7460   4
   4   5   9 213.060 10.3461   2
  -5  -5  -9 82.4413 7.06765   3
  -5  -5  -9 81.0079 5.45961   1
  -5  -5  -9 77.1518 6.92409   5
   5   5   9 86.6891 6.62569   5
   5   5   9 83.1835 7.40594   1
   5   5   9 84.5573 7.12039   4
   5   5   9 76.6116 8.32663   5
   5   5   9 98.9364 7.72071   2
  -6  -5  -9 40.6377 6.78237   3
  -6  -5  -9 45.1604 5.31699   1
   6   5   9 44.9917 6.86503   4
   6   5   9 41.8737 6.79264   2
   6   5   9 41.0967 6.44157   5
  -7  -5  -9 51.8943 6.58993   1
  -7  -5  -9 44.4159 7.65306   3
   7   5   9 31.7580 7.41849   5
   7   5   9 41.5539 7.26001   2
   7   5   9 42.9241 7.50952   4
  -8  -5  -9 61.2004 8.70655   3
  -8  -5  -9 52.1688 7.27262   1
   8   5   9 55.7806 10.2558   5
   8   5   9 50.4792 8.75997   2
   5  -6  -9 4.19275 3.85048   4
  -5   6   9 -1.8520 4.45874   1
  -5   6   9 0.00514 2.37472   5
   4  -6  -9 9.01214 3.78438   4
  -4   6   9 5.97254 2.39535   1
  -4   6   9 4.78913 1.86401   5
   3  -6  -9 5.58902 2.86217   4
  -3   6   9 13.7292 3.38961   5
  -3   6   9 6.83586 2.16115   1
  -3   6   9 9.08983 2.21938   5
   2  -6  -9 2.22581 2.38769   3
   2  -6  -9 1.41475 2.60849   4
  -2   6   9 4.13880 1.50868   5
  -2   6   9 1.01449 2.54403   2
  -2   6   9 1.50109 4.61982   3
  -2   6   9 0.85804 1.54652   5
  -2   6   9 0.41183 1.45281   1
   1  -6  -9 4.15493 2.54739   4
   1  -6  -9 4.23739 2.57971   3
  -1   6   9 10.7115 3.19521   5
  -1   6   9 1.90459 1.32102   5
  -1   6   9 1.21716 1.53368   1
  -1   6   9 3.55697 2.56779   2
  -1   6   9 2.58401 1.31914   1
   0  -6  -9 10.7865 2.88783   3
   0   6   9 16.9171 4.54808   2
   0   6   9 14.5341 2.62831   5
   0   6   9 11.7695 2.92784   5
  -1  -6  -9 49.6194 5.30905   3
   1   6   9 41.0341 3.50482   5
   1   6   9 47.1105 2.90462   1
   1   6   9 44.7365 3.84057   5
   1   6   9 40.5248 3.06817   1
   1   6   9 44.1743 5.07458   2
  -2  -6  -9 11.7230 2.92270   3
   2   6   9 10.6328 3.43992   5
   2   6   9 10.2200 3.06121   1
   2   6   9 7.67816 2.48863   2
   2   6   9 16.3404 3.22200   5
  -3  -6  -9 4.94416 1.62638   1
  -3  -6  -9 6.40348 2.87271   3
   3   6   9 4.00902 2.08168   1
   3   6   9 1.95171 2.29592   5
   3   6   9 4.51666 2.36409   2
  -4  -6  -9 3.40512 2.79822   3
  -4  -6  -9 4.36011 2.05771   5
  -4  -6  -9 2.65284 1.62831   1
   4   6   9 -0.3835 1.96742   2
   4   6   9 2.61426 2.70374   4
   4   6   9 0.91325 2.67958   1
   4   6   9 0.28922 1.73419   5
   4   6   9 -1.1279 2.62970   5
  -5  -6  -9 1.65979 3.15942   3
  -5  -6  -9 2.48159 2.05379   1
   5   6   9 3.16942 2.25202   5
   5   6   9 1.91282 2.81099   4
   5   6   9 1.87918 2.60069   2
  -6  -6  -9 60.0055 5.87215   1
  -6  -6  -9 76.0292 7.35035   3
   6   6   9 63.8367 7.56550   4
   6   6   9 70.4384 8.40248   2
   6   6   9 66.9651 6.86288   5
  -7  -6  -9 5.14530 3.25144   1
  -7  -6  -9 24.1551 8.47371   3
   7   6   9 2.14465 3.35878   2
   7   6   9 10.4053 4.26012   5
   7   6   9 0.12995 3.28061   4
  -8  -6  -9 29.9128 9.34790   3
   8   6   9 14.8501 4.84721   5
   8   6   9 13.9976 4.72149   2
   5  -7  -9 48.1803 10.3777   4
  -5   7   9 59.3848 6.16434   5
   4  -7  -9 -2.9943 3.38787   4
  -4   7   9 2.59277 3.05167   1
  -4   7   9 3.91212 2.01507   5
   3  -7  -9 21.6082 6.89619   4
  -3   7   9 0.21692 2.19619   1
  -3   7   9 3.16603 1.59518   5
  -3   7   9 0.94066 2.06106   5
   2  -7  -9 19.2882 5.85686   4
  -2   7   9 26.5609 3.79113   1
  -2   7   9 23.1452 3.35917   5
  -2   7   9 36.7370 6.45082   2
  -2   7   9 30.5377 3.25707   5
   1  -7  -9 5.57515 2.69513   3
  -1   7   9 1.06665 1.25786   5
  -1   7   9 0.05961 2.57655   2
  -1   7   9 1.24803 1.47691   1
  -1   7   9 1.54603 1.13978   5
   0  -7  -9 2.95545 2.53479   3
   0   7   9 0.02907 2.12451   2
   0   7   9 2.98262 1.61062   1
   0   7   9 2.98066 1.52654   5
   0   7   9 0.10771 1.89249   1
   0   7   9 0.30996 1.30627   5
  -1  -7  -9 63.3505 6.09782   3
   1   7   9 57.6499 4.19856   5
   1   7   9 58.0850 4.08218   5
   1   7   9 61.2495 5.85474   2
   1   7   9 58.0333 4.22976   1
  -2  -7  -9 29.3087 5.37648   3
   2   7   9 30.6259 4.86876   2
   2   7   9 34.6854 4.32749   1
   2   7   9 35.3575 3.98463   5
   2   7   9 44.4068 4.03214   5
  -3  -7  -9 1.97816 1.63492   1
  -3  -7  -9 5.05299 2.70596   3
   3   7   9 5.93318 2.69245   1
   3   7   9 15.3546 5.49373   4
   3   7   9 4.67008 1.79818   5
   3   7   9 5.27937 2.47943   2
   3   7   9 3.90472 2.39232   5
  -4  -7  -9 6.17924 2.03535   1
  -4  -7  -9 5.55911 3.12546   3
   4   7   9 5.49319 2.82914   2
   4   7   9 8.80046 2.97617   5
   4   7   9 8.32162 3.05397   4
   4   7   9 6.80543 2.28639   5
  -5  -7  -9 2.86150 3.00778   3
  -5  -7  -9 2.32210 2.25445   1
   5   7   9 -1.0758 2.68201   4
   5   7   9 -1.2389 2.44904   2
   5   7   9 -1.7047 2.19433   5
  -6  -7  -9 24.9414 5.54965   1
  -6  -7  -9 42.1298 7.54032   3
   6   7   9 29.1704 7.77056   2
   6   7   9 43.7938 7.08031   4
   6   7   9 18.6125 5.88451   5
  -7  -7  -9 9.32149 3.58248   1
  -7  -7  -9 4.59053 4.85744   3
   7   7   9 3.88147 3.32421   4
   7   7   9 5.95269 3.74224   2
   7   7   9 13.9842 4.38678   5
  -8  -7  -9 21.9939 4.83493   1
  -8  -7  -9 45.4315 10.8022   3
   8   7   9 23.5486 5.36664   2
   8   7   9 31.4790 9.23464   5
   4  -8  -9 8.07746 4.83443   4
  -4   8   9 -0.6132 2.01336   5
  -4   8   9 2.85323 3.95744   1
  -3   8   9 27.4949 7.80578   2
  -3   8   9 14.6160 4.02962   5
  -3   8   9 20.6922 3.63564   5
  -3   8   9 11.9192 3.03472   3
  -3   8   9 14.7150 4.97565   1
  -2   8   9 20.4039 2.95425   5
  -2   8   9 22.7699 6.84533   2
  -2   8   9 15.7141 4.15691   1
  -2   8   9 14.5494 3.23069   5
  -1   8   9 -0.4058 2.65419   2
  -1   8   9 1.08633 1.28336   5
  -1   8   9 2.60401 1.48966   5
  -1   8   9 1.71071 1.87316   1
   0  -8  -9 17.1354 5.48871   3
   0   8   9 20.1145 3.84630   1
   0   8   9 15.2423 3.05740   5
   0   8   9 14.7221 2.87017   5
  -1  -8  -9 1.33514 2.87653   3
   1   8   9 1.81296 1.71110   5
   1   8   9 -1.0862 1.41595   5
   1   8   9 0.62876 2.22773   2
  -2  -8  -9 4.68839 3.15990   3
   2   8   9 6.15129 2.01763   5
   2   8   9 4.17887 2.50327   2
   2   8   9 4.73668 1.85551   5
  -3  -8  -9 -2.1052 2.75451   3
   3   8   9 0.10279 2.84879   4
   3   8   9 2.95993 2.50546   2
   3   8   9 -0.0890 2.26810   5
   3   8   9 -2.3658 1.54525   5
  -4  -8  -9 3.76847 3.66327   3
  -4  -8  -9 -0.0954 2.02986   1
   4   8   9 0.48335 2.55331   2
   4   8   9 -3.7762 3.50288   5
   4   8   9 2.32498 2.19782   5
   4   8   9 1.32044 2.84127   4
  -5  -8  -9 -1.5497 2.32423   1
  -5  -8  -9 0.37893 3.56218   3
   5   8   9 -1.2598 2.57478   5
   5   8   9 -2.0218 3.22252   4
   5   8   9 -0.2665 2.70873   2
  -6  -8  -9 11.2895 3.24784   1
  -6  -8  -9 13.2829 4.89957   3
   6   8   9 11.6220 4.14116   2
   6   8   9 6.83571 4.14565   4
   6   8   9 9.85429 3.09441   5
  -7  -8  -9 -5.8293 3.46166   1
   7   8   9 4.45363 4.27407   4
   7   8   9 -4.0682 3.93674   2
   7   8   9 -7.3179 3.88158   5
  -3   9   9 62.3216 9.39413   2
  -3   9   9 65.6135 5.33703   5
  -3   9   9 66.5419 4.46419   5
  -3   9   9 66.6435 6.63819   1
  -2   9   9 128.552 7.32815   1
  -2   9   9 123.061 5.14524   5
  -2   9   9 113.773 9.46797   2
  -1   9   9 183.115 8.51160   1
  -1   9   9 171.483 6.29326   5
  -1   9   9 185.579 11.3297   2
   0   9   9 16.3919 4.68991   1
   0   9   9 12.5880 3.12187   5
   0   9   9 13.0737 3.02483   5
  -1  -9  -9 1.80484 3.53441   3
   1   9   9 3.20846 1.82721   5
   1   9   9 1.90930 1.67788   5
   1   9   9 3.47713 2.41858   2
  -2  -9  -9 5.02559 3.22536   3
   2   9   9 4.60540 2.86037   2
   2   9   9 6.24303 2.31369   5
   2   9   9 1.03586 1.62894   5
   2   9   9 2.79641 3.04800   4
  -3  -9  -9 6.43037 2.25222   1
   3   9   9 8.43997 3.49430   4
   3   9   9 6.54204 2.12779   5
   3   9   9 2.72220 2.49948   5
   3   9   9 7.33642 3.18935   2
  -4  -9  -9 129.380 9.14598   3
  -4  -9  -9 118.662 7.45162   1
   4   9   9 106.221 8.21399   2
   4   9   9 127.976 7.30689   5
   4   9   9 125.288 10.0933   4
  -5  -9  -9 20.4725 5.98542   1
  -5  -9  -9 7.82840 3.78618   3
   5   9   9 17.4920 4.92386   4
   5   9   9 12.0294 3.26591   5
   5   9   9 10.6566 3.99251   2
  -6  -9  -9 3.41698 4.15813   3
  -6  -9  -9 0.13892 3.32514   1
   6   9   9 2.23751 3.72805   4
   6   9   9 1.24590 4.28126   2
   6   9   9 -6.2064 2.87588   5
  -7  -9  -9 8.99374 5.55038   3
  -7  -9  -9 10.2623 4.40957   1
   7   9   9 -8.0617 4.37636   4
   7   9   9 0.71256 4.43323   5
   7   9   9 -6.7928 4.20397   2
  -2  10   9 61.5946 6.91272   1
  -2  10   9 61.0423 7.57154   3
  -2  10   9 75.7161 10.2912   2
  -1  10   9 73.1550 8.14910   2
  -1  10   9 69.5717 6.75867   1
   0  10   9 8.52715 3.46198   2
   0  10   9 16.5696 5.56701   1
   1  10   9 -0.1719 2.83777   2
   1  10   9 0.94399 1.65289   5
   1  10   9 0.29184 3.45900   4
   1  10   9 1.66764 1.83023   5
   2  10   9 20.7660 4.45318   5
   2  10   9 28.8909 4.42253   5
   2  10   9 32.0323 7.57813   4
   2  10   9 34.2024 6.62234   2
  -3 -10  -9 8.73452 2.83502   1
  -3 -10  -9 14.2769 4.61672   3
   3  10   9 27.5581 8.72582   4
   3  10   9 8.70275 3.49013   2
   3  10   9 12.3116 2.48379   5
  -4 -10  -9 10.2818 4.74781   3
  -4 -10  -9 8.20608 3.19860   1
   4  10   9 1.91603 3.42976   2
   4  10   9 5.45840 2.45783   5
   4  10   9 5.20026 4.24531   4
  -5 -10  -9 44.3403 8.65657   3
  -5 -10  -9 45.6698 7.91416   1
   5  10   9 30.0328 9.08300   2
   5  10   9 32.7054 6.50152   5
   5  10   9 51.2626 9.07541   4
  -6 -10  -9 6.81088 5.03223   3
  -6 -10  -9 8.39754 4.54929   1
   6  10   9 -0.8780 4.68652   4
   6  10   9 4.00884 4.22014   2
   6  10   9 2.50051 3.83356   5
  -1  11   9 87.9154 10.2306   2
  -1  11   9 85.0384 9.48583   3
  -1  11   9 102.127 12.5634   4
  -1  11   9 74.8379 8.26953   1
   0  11   9 10.1032 3.47040   1
   0  11   9 3.19788 5.13060   4
   0  11   9 3.50369 3.55426   2
   1  11   9 3.61046 3.30175   2
   1  11   9 9.04498 4.41967   4
   2  11   9 36.3784 7.97728   2
   2  11   9 32.7213 4.62323   5
   2  11   9 25.5625 4.97425   5
  -3 -11  -9 18.7485 6.10546   1
   3  11   9 37.9889 8.40060   2
   3  11   9 41.8142 9.49250   4
   3  11   9 24.9651 5.24884   5
  -4 -11  -9 0.66585 4.09370   1
   4  11   9 1.52668 3.91380   2
   4  11   9 -1.3599 4.48326   4
   4  11   9 -1.5327 2.80046   5
  -5 -11  -9 11.6548 4.46191   1
   5  11   9 11.5647 4.85758   2
   5  11   9 5.70396 4.53693   4
   5  11   9 9.03988 3.30998   5
   2  12   9 244.351 16.0526   4
   2  12   9 238.589 9.16279   5
   2  12   9 230.633 13.8086   2
   1   8 -10 35.3019 10.5600   3
   1   8 -10 26.4641 6.01760   5
   1   8 -10 35.3927 11.6888   4
   0   8 -10 4.32303 4.46082   1
   0   8 -10 5.58510 5.05484   5
   0   8 -10 5.96230 5.90453   3
   0   8 -10 -0.5926 5.25555   4
  -1   8 -10 -2.1501 5.39439   3
  -1   8 -10 -3.7483 3.78410   5
  -1   8 -10 1.62741 4.58087   1
   3   7 -10 19.3030 5.54683   4
   3   7 -10 18.7725 5.95078   3
   2   7 -10 44.5097 9.67048   3
   2   7 -10 26.5433 7.04780   5
   2   7 -10 48.7247 10.4493   4
   1   7 -10 52.5952 9.35890   5
   1   7 -10 68.6802 9.66317   3
   1   7 -10 73.5899 10.5965   4
   0   7 -10 6.06761 4.98989   5
   0   7 -10 0.42912 3.57590   1
   0   7 -10 0.83948 4.22840   3
   0   7 -10 -2.0935 4.10446   4
  -1   7 -10 2.04764 3.92224   1
  -1   7 -10 -0.0932 3.58441   5
  -1   7 -10 6.10176 3.90156   4
  -1   7 -10 -2.8285 4.86190   3
  -2   7 -10 27.1820 8.77802   3
  -2   7 -10 32.8645 7.69170   1
  -2   7 -10 27.1156 8.87872   5
   2  -7  10 16.7920 5.36126   2
  -3   7 -10 3.63342 4.19353   1
  -3   7 -10 4.08317 4.87218   5
  -3   7 -10 2.34902 5.02449   3
   4   6 -10 0.67297 4.70277   4
   4   6 -10 4.18612 5.47682   3
   3   6 -10 1.12204 4.90733   3
   2   6 -10 -2.4523 4.08696   4
   2   6 -10 -0.6696 3.68806   5
   2   6 -10 -2.1857 4.40412   3
  -2  -6  10 -4.4497 6.76024   5
   1   6 -10 -0.8553 3.88720   3
   1   6 -10 3.80305 4.18478   4
   1   6 -10 -5.0509 3.43082   5
  -1  -6  10 4.89506 3.83416   5
  -1  -6  10 3.19678 3.01833   2
   0   6 -10 -0.3938 4.11841   3
   0   6 -10 2.12709 3.71801   4
   0   6 -10 4.91228 2.98295   1
   0   6 -10 6.23787 4.27013   5
   0  -6  10 2.19211 3.04972   2
  -1   6 -10 37.7387 6.36533   1
  -1   6 -10 42.4935 7.11596   5
  -1   6 -10 46.5328 7.64827   3
  -1   6 -10 62.7184 7.39868   4
   1  -6  10 51.2306 6.97958   2
  -2   6 -10 10.3877 3.38030   4
  -2   6 -10 4.59577 3.93286   3
  -2   6 -10 7.52233 3.25196   1
  -2   6 -10 11.1645 4.53318   5
   2  -6  10 6.63992 3.38990   2
  -3   6 -10 3.99469 3.89034   5
  -3   6 -10 -1.8247 3.14600   1
  -3   6 -10 -1.2710 4.19450   3
   3  -6  10 -2.8854 3.56846   2
  -4   6 -10 0.66591 4.87531   3
  -4   6 -10 -1.8884 4.55277   5
   4  -6  10 0.95553 3.96832   2
   4   5 -10 15.3472 5.13059   3
   4   5 -10 13.1510 4.51109   4
  -4  -5  10 33.9731 10.2307   5
  -4  -5  10 4.99825 3.73537   2
   3   5 -10 131.080 9.58538   3
  -3  -5  10 144.090 8.78691   2
  -3  -5  10 130.071 7.43879   1
  -3  -5  10 128.538 11.2042   5
   2   5 -10 8.63411 4.13536   4
   2   5 -10 7.65316 4.19466   3
   2   5 -10 8.54716 3.94784   5
  -2  -5  10 7.58116 3.19518   2
  -2  -5  10 9.05631 4.12241   5
   1   5 -10 3.93813 3.69321   3
   1   5 -10 8.83872 3.92896   4
   1   5 -10 3.48335 3.34974   5
  -1  -5  10 -2.1537 2.88775   5
  -1  -5  10 0.41725 2.62097   2
   0   5 -10 1.23894 3.66901   3
   0   5 -10 1.03762 2.20258   1
   0   5 -10 1.56122 3.47453   4
   0   5 -10 -2.9534 3.31235   5
   0  -5  10 -0.3134 2.36811   2
   0  -5  10 2.56111 3.24250   5
  -1   5 -10 5.13053 2.48498   5
  -1   5 -10 3.48995 3.36545   3
  -1   5 -10 10.8332 2.88322   1
   1  -5  10 5.35663 2.99932   5
   1  -5  10 10.6408 3.06452   2
  -2   5 -10 112.010 8.97638   3
  -2   5 -10 100.065 6.78938   1
  -2   5 -10 115.122 7.60319   4
   2  -5  10 93.2725 8.23345   5
   2  -5  10 105.930 7.88818   2
  -3   5 -10 19.4586 5.94531   1
  -3   5 -10 22.8815 6.94220   3
  -3   5 -10 15.1635 4.34311   5
   3  -5  10 28.6134 6.80004   2
  -4   5 -10 6.95739 4.53105   5
  -4   5 -10 8.64240 4.50059   3
  -4   5 -10 6.34628 3.67910   1
   4  -5  10 9.77821 4.08315   2
  -5   5 -10 4.02781 4.21877   1
  -5   5 -10 2.79367 5.16780   3
  -5   5 -10 -0.6120 4.33154   5
   5  -5  10 -5.8016 3.77104   2
  -5  -4  10 7.70982 5.40620   5
  -5  -4  10 10.2323 4.43536   2
   4   4 -10 18.7509 4.44231   3
  -4  -4  10 36.9467 9.00816   5
  -4  -4  10 23.6822 6.62168   2
   3   4 -10 26.6001 7.97211   4
   3   4 -10 24.0758 6.19215   3
  -3  -4  10 22.4128 7.12271   5
  -3  -4  10 22.5703 6.24944   2
  -3  -4  10 15.6988 4.52559   1
   2   4 -10 33.4960 7.72789   4
   2   4 -10 28.7341 6.57938   3
   2   4 -10 36.3376 7.40702   5
  -2  -4  10 44.0653 6.09969   2
  -2  -4  10 33.3774 7.50343   5
   1   4 -10 9.40958 3.62635   3
   1   4 -10 22.3151 6.20644   4
   1   4 -10 28.0912 7.24312   5
  -1  -4  10 19.4871 5.35286   2
  -1  -4  10 13.1934 3.60032   5
   0   4 -10 12.0617 3.99025   1
   0   4 -10 6.25032 3.04873   4
   0   4 -10 -0.2123 2.78790   5
   0   4 -10 4.58218 3.47562   3
   0  -4  10 1.13162 2.34446   2
   0  -4  10 3.20747 2.73519   5
  -1   4 -10 3.54506 2.59855   4
  -1   4 -10 2.71325 2.13715   1
  -1   4 -10 1.49673 3.06323   3
   1  -4  10 0.50751 2.71214   5
   1  -4  10 -1.1033 2.25935   2
  -2   4 -10 -1.7321 1.94090   1
  -2   4 -10 3.62336 2.70852   4
  -2   4 -10 5.53452 3.27323   3
  -2   4 -10 -2.2949 3.01242   5
   2  -4  10 4.87803 3.31460   5
   2  -4  10 1.89449 2.59458   2
  -3   4 -10 -1.8639 2.28487   4
  -3   4 -10 1.61310 2.35722   1
  -3   4 -10 -3.9529 3.07662   3
  -3   4 -10 -0.6636 3.16105   5
   3  -4  10 -2.4336 2.56551   2
  -4   4 -10 25.6565 6.61318   3
  -4   4 -10 31.0914 6.11984   1
   4  -4  10 25.7248 6.73903   2
  -5   4 -10 29.4359 9.35161   5
  -5   4 -10 2.66837 4.59707   3
  -5   4 -10 -0.7775 3.43936   1
   5  -4  10 3.89425 3.93400   2
  -6   4 -10 3.57996 4.58612   1
  -6   4 -10 32.1143 9.75711   3
   5   3 -10 -0.4621 4.91280   4
  -5  -3  10 -4.2709 3.86873   2
  -5  -3  10 0.28292 4.03615   5
   4   3 -10 3.69131 3.76021   4
   4   3 -10 -1.7816 2.97909   3
  -4  -3  10 7.50805 3.43652   2
  -4  -3  10 1.63063 3.06728   1
  -4  -3  10 -1.3958 3.25569   5
   3   3 -10 2.73490 2.99085   3
   3   3 -10 7.89647 3.86954   4
  -3  -3  10 3.82679 2.11592   1
  -3  -3  10 6.44969 3.32604   5
  -3  -3  10 4.40232 2.61111   2
   2   3 -10 60.3711 7.63878   4
   2   3 -10 49.6052 7.00600   5
   2   3 -10 48.9587 5.97998   3
  -2  -3  10 41.6604 5.72479   2
  -2  -3  10 49.6560 7.14844   5
   1   3 -10 -0.1678 2.79565   4
   1   3 -10 4.54322 1.70240   1
   1   3 -10 5.51628 3.08639   3
  -1  -3  10 9.74185 3.19534   5
  -1  -3  10 5.35372 2.39654   2
   0   3 -10 3.15333 2.37212   1
   0   3 -10 1.92308 2.74745   3
   0   3 -10 0.72546 2.22666   5
   0   3 -10 0.89311 2.57746   4
   0   3 -10 -0.1950 1.78757   1
   0  -3  10 -0.9073 2.08013   2
   0  -3  10 0.76660 2.32197   5
  -1   3 -10 -1.0975 2.17382   4
  -1   3 -10 -1.2273 1.51618   1
  -1   3 -10 0.97837 2.98057   1
  -1   3 -10 -0.9938 2.50844   5
  -1   3 -10 -1.5485 2.59548   3
   1  -3  10 -0.4551 2.72923   5
   1  -3  10 -1.7403 2.21744   2
  -2   3 -10 2.66932 2.48561   5
  -2   3 -10 1.18920 1.72213   1
  -2   3 -10 2.73223 2.91122   3
  -2   3 -10 0.27134 2.18857   4
   2  -3  10 2.51879 2.53037   2
   2  -3  10 0.24876 1.95316   5
  -3   3 -10 -0.1292 2.05000   1
  -3   3 -10 3.23345 3.12866   3
  -3   3 -10 2.20140 2.97614   5
  -3   3 -10 -2.7226 2.16988   4
   3  -3  10 -2.4475 2.49326   5
   3  -3  10 0.03048 2.77988   2
  -4   3 -10 -2.2630 2.54123   1
  -4   3 -10 0.61664 3.10419   3
  -4   3 -10 1.43363 3.26368   5
   4  -3  10 1.17733 3.40865   5
   4  -3  10 3.17651 3.02698   2
  -5   3 -10 5.21094 3.25581   1
  -5   3 -10 -0.2822 3.49547   3
  -5   3 -10 -3.0590 2.94270   5
   5  -3  10 5.72324 4.73914   5
   5  -3  10 1.12587 3.60980   2
  -6   3 -10 7.80800 4.74099   5
  -6   3 -10 3.86764 4.57368   3
   6  -3  10 -4.1906 3.60775   2
   5   2 -10 4.62008 4.52257   4
  -5  -2  10 -0.9678 3.49711   2
  -5  -2  10 0.04968 3.97349   5
   4   2 -10 22.4926 5.37991   3
   4   2 -10 33.2664 8.46821   4
  -4  -2  10 16.4883 5.51789   1
  -4  -2  10 21.5486 6.70276   2
  -4  -2  10 32.7579 6.92723   5
   3   2 -10 8.51166 3.18406   3
   3   2 -10 2.16872 3.27486   4
  -3  -2  10 10.6797 3.41236   5
  -3  -2  10 9.46005 2.92713   2
   2   2 -10 54.2278 5.49959   3
   2   2 -10 48.2775 6.74252   5
   2   2 -10 64.1965 6.97655   4
  -2  -2  10 40.0403 5.59627   5
  -2  -2  10 43.3073 5.74464   2
   1   2 -10 28.5418 4.83357   3
   1   2 -10 32.2505 6.03123   4
   1   2 -10 31.1078 5.84089   5
  -1  -2  10 40.0536 7.11261   5
  -1  -2  10 34.0887 5.31770   2
  -1  -2  10 21.3351 5.09489   5
   0   2 -10 21.7610 4.61689   5
   0   2 -10 16.4350 4.47072   3
   0   2 -10 24.7471 5.03923   4
   0  -2  10 15.1018 5.11121   2
   0  -2  10 14.9381 3.17793   5
   0  -2  10 20.0884 5.41347   5
  -1   2 -10 15.1932 5.06868   5
  -1   2 -10 8.52534 2.92000   3
  -1   2 -10 8.97297 2.86294   4
   1  -2  10 1.20452 2.76239   5
   1  -2  10 7.17928 2.50760   2
   1  -2  10 3.84465 2.25839   5
  -2   2 -10 29.8116 4.92843   3
  -2   2 -10 18.5740 5.47671   5
  -2   2 -10 31.4429 3.68641   1
  -2   2 -10 25.3561 4.91300   4
   2  -2  10 26.9298 5.47147   5
   2  -2  10 22.9321 4.74896   2
  -3   2 -10 34.5077 6.02060   3
  -3   2 -10 34.6545 4.08605   1
  -3   2 -10 28.4148 5.18444   4
  -3   2 -10 34.5032 6.16022   5
   3  -2  10 37.7173 5.85946   2
   3  -2  10 29.5921 5.93318   5
  -4   2 -10 -0.9601 2.53572   5
  -4   2 -10 1.86682 2.83578   3
  -4   2 -10 1.32388 2.26939   1
   4  -2  10 -0.3505 2.41438   2
   4  -2  10 -2.0826 2.80126   5
  -5   2 -10 6.78803 3.69871   5
  -5   2 -10 3.74021 2.70995   1
  -5   2 -10 0.97122 3.59890   3
   5  -2  10 -3.0692 3.33299   5
   5  -2  10 -2.5835 3.08912   2
   5  -2  10 2.15868 2.65541   4
  -6   2 -10 7.89423 4.23163   3
  -6   2 -10 -1.5129 3.60648   5
  -6   2 -10 10.0448 3.32988   1
   6  -2  10 7.86192 3.64806   2
  -7   2 -10 -6.1807 4.55545   3
   7  -2  10 5.84353 4.63898   2
   6   1 -10 4.51281 5.02578   4
  -6  -1  10 3.32896 5.09524   5
   5   1 -10 7.77428 4.74391   4
  -5  -1  10 13.8955 4.01045   2
   4   1 -10 8.39522 3.94230   4
   4   1 -10 3.17298 2.81763   3
  -4  -1  10 7.46946 3.18567   2
  -4  -1  10 7.44318 3.31243   5
   3   1 -10 119.263 8.72691   4
   3   1 -10 109.347 6.72958   3
  -3  -1  10 106.886 7.61080   5
  -3  -1  10 113.935 8.28436   2
   2   1 -10 5.27555 4.71841   5
   2   1 -10 -1.7006 2.32510   4
   2   1 -10 5.41684 2.77423   3
  -2  -1  10 -0.9476 3.29715   5
  -2  -1  10 1.09376 2.07943   2
  -2  -1  10 1.69564 2.41009   5
   1   1 -10 43.9690 5.03922   3
   1   1 -10 39.9827 5.28938   5
   1   1 -10 36.1404 5.61733   4
  -1  -1  10 45.8053 5.52228   5
  -1  -1  10 37.9650 4.93170   2
  -1  -1  10 50.9355 5.84612   5
   0   1 -10 1.75796 2.42566   5
   0   1 -10 5.68906 2.49437   4
   0   1 -10 4.14181 2.28216   3
   0  -1  10 1.83709 2.14238   5
   0  -1  10 3.49498 2.67542   5
   0  -1  10 1.13761 1.93476   2
  -1   1 -10 3.62406 2.13810   4
  -1   1 -10 -0.8988 2.26362   5
  -1   1 -10 1.80121 2.45607   3
   1  -1  10 1.95932 2.27669   2
   1  -1  10 3.24928 2.55860   5
   1  -1  10 -4.3150 2.63944   5
  -2   1 -10 1.94160 1.97200   4
  -2   1 -10 -4.6595 2.32961   5
  -2   1 -10 -2.0122 2.09413   3
   2  -1  10 -2.0251 2.58121   5
   2  -1  10 0.25672 2.12316   2
   2  -1  10 -0.4157 2.01981   5
  -3   1 -10 17.2351 3.29038   1
  -3   1 -10 27.7258 5.43548   3
  -3   1 -10 14.6688 3.80209   1
   3  -1  10 12.9662 3.37422   5
   3  -1  10 18.4720 4.59744   2
   3  -1  10 9.68461 3.77270   5
  -4   1 -10 1.02901 2.03499   1
  -4   1 -10 -1.1257 2.99500   3
  -4   1 -10 4.91159 2.92792   5
   4  -1  10 -1.4447 2.31646   2
   4  -1  10 -1.1317 2.69094   5
  -5   1 -10 16.3438 4.86646   1
  -5   1 -10 27.1869 6.22210   3
  -5   1 -10 17.1889 4.04949   5
   5  -1  10 19.4283 5.30501   4
   5  -1  10 16.3469 3.79883   5
   5  -1  10 25.4783 5.94254   2
  -6   1 -10 5.37829 4.36708   5
  -6   1 -10 4.18421 3.99435   3
  -6   1 -10 4.20624 3.03821   1
   6  -1  10 6.82577 2.86882   4
   6  -1  10 -1.6154 3.22703   5
   6  -1  10 2.54425 3.60473   2
  -7   1 -10 6.98336 4.86890   3
   7  -1  10 0.22217 3.96126   2
   6   0 -10 -0.9418 4.98602   4
   5   0 -10 7.71987 4.30728   4
  -5   0  10 7.18605 3.67607   5
  -5   0  10 8.11987 4.15295   2
   4   0 -10 25.7448 6.80456   4
   4   0 -10 38.6683 4.60877   3
  -4   0  10 30.3273 5.72700   5
  -4   0  10 49.4125 7.24835   2
   3   0 -10 30.1587 6.15982   4
   3   0 -10 28.3278 4.86944   3
  -3   0  10 37.9371 6.28596   2
  -3   0  10 30.1128 5.36418   5
   2   0 -10 119.210 7.08492   3
   2   0 -10 126.297 8.40126   4
   2   0 -10 129.328 7.16002   5
  -2   0  10 125.954 7.10690   5
  -2   0  10 128.401 7.76570   5
  -2   0  10 120.923 7.88559   2
   1   0 -10 0.55942 2.10990   4
   1   0 -10 1.66317 2.22864   3
   1   0 -10 -2.1501 2.40791   5
  -1   0  10 -0.1198 1.80287   2
  -1   0  10 -0.2123 1.97784   5
  -1   0  10 -3.4527 1.61608   5
   0   0 -10 3.07583 2.51275   3
   0   0 -10 -2.7022 1.79382   4
   0   0  10 -0.0842 1.69251   5
   0   0  10 0.09967 2.04327   2
   0   0  10 -0.8706 2.25576   5
  -1   0 -10 1.59820 2.38226   3
  -1   0 -10 1.58729 2.03758   4
  -1   0 -10 1.29503 2.00450   5
   1   0  10 2.48076 2.26816   2
   1   0  10 3.55305 1.97759   5
   1   0  10 -2.4252 2.72307   5
  -2   0 -10 -0.2553 2.61317   3
  -2   0 -10 2.97062 2.55944   5
  -2   0 -10 -0.7609 2.03390   4
   2   0  10 0.20337 2.53510   5
   2   0  10 -1.5106 1.71693   5
   2   0  10 1.39644 1.96921   2
  -3   0 -10 93.6675 4.45893   1
  -3   0 -10 82.0658 6.13490   5
  -3   0 -10 89.5650 7.05104   3
  -3   0 -10 91.7511 4.24584   1
   3   0  10 88.1941 6.84947   5
   3   0  10 90.0618 6.71320   2
   3   0  10 96.6319 7.72391   5
  -4   0 -10 18.5592 5.82177   5
  -4   0 -10 21.0357 5.72330   1
  -4   0 -10 15.4988 3.81208   3
  -4   0 -10 16.2589 3.77048   1
   4   0  10 31.1798 7.74172   5
   4   0  10 10.0372 2.74693   5
   4   0  10 16.7613 3.38773   2
  -5   0 -10 -0.5155 2.93568   3
  -5   0 -10 -4.1184 2.89900   5
  -5   0 -10 -2.8465 2.04615   1
   5   0  10 -2.2419 2.55540   4
   5   0  10 -3.8921 2.70544   5
   5   0  10 -0.7655 2.34177   2
  -6   0 -10 36.9360 7.48352   3
  -6   0 -10 37.6645 6.50490   1
   6   0  10 43.3423 7.15132   2
   6   0  10 30.7254 5.65310   4
   6   0  10 31.0515 7.61540   5
  -7   0 -10 0.34464 4.10664   3
  -7   0 -10 -1.6976 3.58726   1
   7   0  10 -2.1096 3.48809   2
   7   0  10 -0.4730 4.53843   5
   6  -1 -10 13.2196 5.31233   4
  -6   1  10 -1.6243 3.56057   5
  -5   1  10 27.6636 7.13766   5
   4  -1 -10 2.56707 3.35015   4
  -4   1  10 6.79686 2.92426   5
  -4   1  10 0.44201 2.92753   2
   3  -1 -10 -1.6651 2.33540   4
   3  -1 -10 4.11224 2.38825   3
  -3   1  10 1.47850 1.96293   5
  -3   1  10 3.97286 2.39360   2
   2  -1 -10 16.5576 4.00011   3
   2  -1 -10 19.5490 5.12496   4
  -2   1  10 14.5863 4.04257   5
  -2   1  10 20.4841 5.62219   3
  -2   1  10 14.5385 5.18726   2
   1  -1 -10 22.9673 4.60035   5
   1  -1 -10 24.8335 5.49516   4
   1  -1 -10 15.2625 4.19927   3
  -1   1  10 20.8495 4.42499   2
  -1   1  10 21.1904 3.97177   5
  -1   1  10 22.5693 4.21961   5
   0  -1 -10 66.7435 6.06415   4
   0  -1 -10 73.5776 5.75881   3
   0  -1 -10 79.1746 5.41491   5
   0   1  10 62.1065 5.34455   5
   0   1  10 68.1592 5.00842   5
   0   1  10 75.1113 5.93672   2
  -1  -1 -10 37.9722 4.79327   3
  -1  -1 -10 32.6092 4.83760   4
  -1  -1 -10 33.0457 4.71724   5
   1   1  10 27.8578 5.11173   5
   1   1  10 41.3481 5.02282   2
   1   1  10 37.5981 4.47363   5
  -2  -1 -10 1.51948 2.25596   3
  -2  -1 -10 2.21375 2.72681   5
  -2  -1 -10 2.52931 1.80227   4
   2   1  10 -2.0420 2.58118   5
   2   1  10 -0.2804 1.69307   5
   2   1  10 4.70549 2.39381   2
  -3  -1 -10 29.8454 5.23770   3
  -3  -1 -10 37.3312 5.33692   5
   3   1  10 40.6642 6.00616   5
   3   1  10 33.9066 5.21954   5
   3   1  10 34.7859 4.92409   2
  -4  -1 -10 29.2295 5.23434   5
  -4  -1 -10 14.7833 5.07305   3
  -4  -1 -10 18.1165 3.24168   1
   4   1  10 18.7173 4.91279   2
   4   1  10 15.2671 4.89743   5
   4   1  10 30.4781 7.07483   5
  -5  -1 -10 51.2157 4.95563   1
  -5  -1 -10 58.4080 7.18258   3
  -5  -1 -10 49.7667 7.01973   5
   5   1  10 41.2455 6.46362   5
   5   1  10 43.8139 6.68242   2
   5   1  10 50.5116 6.23081   4
  -6  -1 -10 52.1968 6.16587   1
  -6  -1 -10 61.4108 7.57108   3
   6   1  10 56.2012 7.83904   2
   6   1  10 54.2087 6.94863   4
   6   1  10 43.2176 7.35844   5
  -7  -1 -10 -0.9433 3.28781   1
  -7  -1 -10 7.91048 4.36926   3
   7   1  10 2.79756 3.84955   2
   7   1  10 -3.1532 2.74368   4
   7   1  10 -1.7205 4.32997   5
  -8  -1 -10 4.12592 5.67448   3
  -8  -1 -10 -5.5695 3.86137   1
   8   1  10 -4.4588 4.03843   2
   6  -2 -10 14.7663 4.86691   4
  -6   2  10 9.86239 4.03396   5
   5  -2 -10 84.3412 9.20822   4
  -5   2  10 56.3971 7.00317   5
   4  -2 -10 32.1941 7.17560   4
  -4   2  10 29.1590 6.99294   2
  -4   2  10 28.1469 5.44354   5
   3  -2 -10 4.83016 2.80758   4
   3  -2 -10 4.13413 2.51227   3
  -3   2  10 6.50227 2.41717   5
  -3   2  10 5.23904 3.06952   2
   2  -2 -10 -0.5834 2.28356   5
   2  -2 -10 3.23617 2.42834   4
   2  -2 -10 0.49069 2.06960   3
  -2   2  10 3.31489 2.03982   5
  -2   2  10 0.09133 2.29956   5
  -2   2  10 -2.2983 3.17072   3
  -2   2  10 -0.7494 2.31395   2
   1  -2 -10 109.321 7.54782   4
   1  -2 -10 96.2300 5.80544   5
   1  -2 -10 105.544 6.31871   3
  -1   2  10 99.8691 6.98195   2
  -1   2  10 98.1640 6.09238   5
  -1   2  10 85.8964 6.12292   5
   0  -2 -10 24.3600 4.98498   4
   0  -2 -10 27.4018 4.20359   3
   0  -2 -10 30.4884 4.18325   5
   0   2  10 26.7855 4.17565   5
   0   2  10 19.9000 3.48270   5
   0   2  10 22.3192 4.41027   2
  -1  -2 -10 454.709 14.2544   5
  -1  -2 -10 469.337 15.8609   3
  -1  -2 -10 460.348 16.2303   4
   1   2  10 480.656 15.4967   5
   1   2  10 477.909 16.4897   2
   1   2  10 477.255 15.1671   5
  -2  -2 -10 -1.5024 2.01854   4
  -2  -2 -10 0.20824 2.18228   3
  -2  -2 -10 -2.2051 1.96967   5
   2   2  10 0.17639 1.77571   5
   2   2  10 1.06000 2.41911   5
   2   2  10 -1.0162 1.78348   2
  -3  -2 -10 12.8551 4.26874   5
  -3  -2 -10 13.0785 4.34830   3
   3   2  10 4.98819 2.30079   2
   3   2  10 9.21325 2.85011   5
   3   2  10 5.86159 2.16855   5
  -4  -2 -10 15.8490 4.81938   3
  -4  -2 -10 17.8345 5.36599   5
  -4  -2 -10 11.3261 2.97804   1
   4   2  10 22.2037 6.03618   5
   4   2  10 20.4327 5.01174   2
   4   2  10 15.4083 4.58564   5
  -5  -2 -10 0.08801 1.86943   1
  -5  -2 -10 1.45041 2.80330   5
  -5  -2 -10 0.59508 2.47535   3
   5   2  10 2.18638 2.55708   5
   5   2  10 5.96392 3.19326   2
   5   2  10 -0.7335 2.63776   4
  -6  -2 -10 25.7086 5.18997   1
   6   2  10 18.3384 4.15993   5
   6   2  10 35.2081 6.81203   4
   6   2  10 24.1950 6.79459   2
  -7  -2 -10 29.6442 6.21009   1
  -7  -2 -10 45.4550 8.72151   3
   7   2  10 38.1422 8.02723   2
   7   2  10 48.0771 7.37262   4
   7   2  10 24.4451 5.17725   5
  -8  -2 -10 31.4845 10.2012   3
  -8  -2 -10 3.98199 4.03890   1
   8   2  10 3.18391 5.34924   5
   8   2  10 3.47298 4.50178   4
   8   2  10 6.64250 4.86115   2
   5  -3 -10 33.6788 9.18794   4
   4  -3 -10 46.5495 8.34075   4
  -4   3  10 40.4898 5.73812   5
   3  -3 -10 2.19573 2.19377   3
   3  -3 -10 -0.1548 2.56875   4
  -3   3  10 6.13341 3.19271   2
  -3   3  10 5.61299 2.07853   5
   2  -3 -10 0.98302 2.41245   4
   2  -3 -10 0.95480 2.26283   3
  -2   3  10 1.83962 2.07243   5
  -2   3  10 2.37400 2.47843   2
  -2   3  10 0.68491 1.70652   5
  -2   3  10 3.35113 3.28774   3
   1  -3 -10 1.60966 2.33780   3
   1  -3 -10 0.44608 1.98921   4
   1  -3 -10 2.25020 1.84970   5
  -1   3  10 4.39884 1.91602   5
  -1   3  10 2.31323 2.18097   5
  -1   3  10 0.24199 1.75370   2
   0  -3 -10 -1.2458 2.23238   4
   0  -3 -10 1.23339 2.25056   3
   0  -3 -10 2.38733 1.73497   5
   0   3  10 -0.2108 1.36775   5
   0   3  10 -2.7669 1.81303   5
   0   3  10 -1.2530 1.72715   2
  -1  -3 -10 63.9735 4.75637   5
  -1  -3 -10 65.7182 5.89155   4
  -1  -3 -10 55.0586 5.41504   3
   1   3  10 64.3083 5.19883   5
   1   3  10 55.0875 5.48586   2
   1   3  10 57.1590 4.94789   5
  -2  -3 -10 9.29853 2.73008   3
  -2  -3 -10 8.67323 2.24987   5
   2   3  10 6.46918 2.34251   5
   2   3  10 7.38239 2.43547   2
   2   3  10 13.1542 4.19285   5
  -3  -3 -10 1.82146 2.06029   5
  -3  -3 -10 4.02982 2.68155   3
   3   3  10 -0.2915 1.82537   5
   3   3  10 1.98370 2.03768   2
   3   3  10 -1.1808 2.64782   5
  -4  -3 -10 14.0240 3.21140   5
  -4  -3 -10 12.9650 3.38236   3
  -4  -3 -10 15.3131 3.05962   1
   4   3  10 25.4425 6.27080   5
   4   3  10 17.1072 3.83339   1
   4   3  10 23.1097 4.86307   2
  -5  -3 -10 17.6158 5.83523   3
  -5  -3 -10 22.3555 3.90289   1
   5   3  10 27.4822 6.28823   5
   5   3  10 8.11322 2.76679   2
   5   3  10 13.5027 3.30853   4
  -6  -3 -10 7.03170 2.67015   1
  -6  -3 -10 4.26316 3.46656   3
   6   3  10 5.22551 3.33145   4
   6   3  10 6.66824 3.40021   5
   6   3  10 6.10837 2.84723   2
  -7  -3 -10 56.7150 8.97268   3
  -7  -3 -10 39.5241 6.50010   1
   7   3  10 44.1975 7.45819   4
   7   3  10 46.7597 8.09855   2
   7   3  10 45.9154 10.1056   5
  -8  -3 -10 6.23141 5.92272   3
  -8  -3 -10 -2.3023 3.87281   1
   8   3  10 1.99893 4.14436   2
   8   3  10 -7.8591 3.78500   4
   5  -4 -10 6.21227 4.59282   4
  -5   4  10 5.02946 3.03797   5
   4  -4 -10 5.46442 3.54669   4
  -4   4  10 3.93691 2.48165   5
   3  -4 -10 19.2111 4.06282   3
   3  -4 -10 20.2584 6.38272   4
  -3   4  10 9.24779 3.15491   2
  -3   4  10 16.6358 4.24450   5
   2  -4 -10 19.8778 5.79587   4
   2  -4 -10 27.5275 4.48133   3
  -2   4  10 20.6441 4.43040   5
  -2   4  10 28.3878 5.86714   2
  -2   4  10 22.4257 3.93443   5
   1  -4 -10 27.6927 5.36136   4
   1  -4 -10 17.9473 4.52886   3
  -1   4  10 22.4719 4.52614   2
  -1   4  10 21.9467 3.44234   5
  -1   4  10 21.3714 3.81075   5
   0  -4 -10 24.9316 5.14968   4
   0  -4 -10 31.3080 4.90666   3
   0   4  10 25.7944 3.71678   5
   0   4  10 24.8702 3.87994   5
   0   4  10 30.1626 4.69551   2
  -1  -4 -10 9.34489 2.71208   4
  -1  -4 -10 8.09555 2.70256   3
  -1  -4 -10 15.9039 3.55633   5
   1   4  10 17.9416 3.94812   5
   1   4  10 10.0529 3.32141   5
   1   4  10 12.4718 3.97505   2
  -2  -4 -10 8.97454 2.85085   3
   2   4  10 8.23727 2.12301   5
   2   4  10 10.3566 3.47815   5
   2   4  10 8.62909 2.46040   2
  -3  -4 -10 1.21840 2.41031   3
  -3  -4 -10 -0.8684 2.28444   5
   3   4  10 2.61911 1.91055   5
   3   4  10 -0.7604 2.71969   5
   3   4  10 -1.6373 1.91854   2
  -4  -4 -10 85.3899 6.68235   5
  -4  -4 -10 79.1437 4.32686   1
  -4  -4 -10 92.7988 7.42764   3
   4   4  10 87.1529 7.32141   2
   4   4  10 80.9562 5.04537   1
   4   4  10 77.4925 5.99793   5
   4   4  10 92.5710 7.04517   5
  -5  -4 -10 54.2298 4.70516   1
  -5  -4 -10 55.4785 7.03561   3
   5   4  10 50.7884 6.44345   4
   5   4  10 66.1917 7.43678   2
   5   4  10 50.8261 6.08718   5
  -6  -4 -10 4.94483 2.59368   1
  -6  -4 -10 -1.6727 3.34374   3
   6   4  10 0.07600 3.02800   5
   6   4  10 7.19093 3.64143   4
   6   4  10 3.93568 2.94518   2
  -7  -4 -10 21.6029 5.14605   3
  -7  -4 -10 32.6955 6.49501   1
   7   4  10 16.3519 4.07057   4
   7   4  10 42.1649 8.86987   5
   7   4  10 18.0984 4.30811   2
  -8  -4 -10 -2.6459 3.75903   1
  -8  -4 -10 13.0363 5.70572   3
   8   4  10 3.69950 4.71567   4
   8   4  10 -0.1833 4.73833   2
   8   4  10 2.43444 5.38277   5
   5  -5 -10 -4.4010 4.05582   4
  -5   5  10 7.50509 2.98444   5
   4  -5 -10 1.27786 3.80127   4
  -4   5  10 3.05753 2.53951   5
   3  -5 -10 5.79502 3.24114   4
  -3   5  10 15.1330 4.03643   5
  -3   5  10 4.65912 3.42918   2
   2  -5 -10 -2.9566 2.13142   3
   2  -5 -10 3.04634 2.92034   4
  -2   5  10 3.28628 2.73962   2
  -2   5  10 3.20765 1.77917   5
  -2   5  10 -3.0956 1.98756   5
   1  -5 -10 69.2446 5.59685   3
   1  -5 -10 69.6867 6.95534   4
  -1   5  10 65.9320 4.57514   5
  -1   5  10 72.3078 6.62265   2
  -1   5  10 71.5378 4.92298   5
   0  -5 -10 32.8656 5.56220   4
   0  -5 -10 29.3687 5.04517   3
   0   5  10 25.0789 5.02503   2
   0   5  10 18.9372 3.19642   5
   0   5  10 19.0218 3.94637   5
  -1  -5 -10 1.95673 2.59448   3
   1   5  10 -0.3896 2.19205   2
   1   5  10 0.74797 1.36848   5
   1   5  10 0.38544 2.02184   5
  -2  -5 -10 1.84317 2.37941   3
   2   5  10 3.60315 1.75132   5
   2   5  10 3.32756 2.05762   5
  -3  -5 -10 0.27758 2.29644   5
  -3  -5 -10 -0.8268 2.44372   3
   3   5  10 0.58871 2.01748   5
   3   5  10 -0.5259 2.44735   5
   3   5  10 0.79532 2.28885   2
  -4  -5 -10 77.3672 4.38754   1
  -4  -5 -10 66.3896 6.98086   3
   4   5  10 74.0887 6.87103   2
   4   5  10 74.8162 6.81809   5
   4   5  10 83.9628 7.55326   4
   4   5  10 83.7695 6.35164   5
  -5  -5 -10 16.4797 3.90246   3
  -5  -5 -10 20.1341 3.93372   1
   5   5  10 27.4797 5.70678   5
   5   5  10 26.8248 6.12989   2
   5   5  10 30.3010 6.79368   4
  -6  -5 -10 5.57514 3.81246   3
  -6  -5 -10 -1.8168 2.72957   1
   6   5  10 3.12233 3.32428   5
   6   5  10 1.56052 3.31010   2
   6   5  10 2.78790 3.61299   4
  -7  -5 -10 10.8934 3.56056   1
  -7  -5 -10 5.34766 4.32756   3
   7   5  10 10.5224 4.05550   5
   7   5  10 9.12615 3.82992   4
   7   5  10 14.5693 4.58758   2
   4  -6 -10 117.752 11.1544   4
  -4   6  10 108.664 6.92698   5
   3  -6 -10 2.93540 3.17472   4
  -3   6  10 9.14628 2.11723   5
  -3   6  10 7.12192 3.34583   2
   2  -6 -10 1.98071 2.70861   3
   2  -6 -10 0.87244 3.13020   4
  -2   6  10 3.75283 2.88394   2
  -2   6  10 -0.2369 1.50727   5
  -2   6  10 -0.4987 1.84218   5
   1  -6 -10 5.29062 2.85489   4
   1  -6 -10 0.29877 2.56807   3
  -1   6  10 -1.4066 2.24096   2
  -1   6  10 1.90422 1.94881   5
  -1   6  10 0.27820 1.40498   5
   0  -6 -10 31.8098 5.56556   3
   0   6  10 26.8116 5.45435   2
   0   6  10 31.4757 3.44928   5
   0   6  10 23.6593 6.17918   5
  -1  -6 -10 102.163 7.34340   3
   1   6  10 91.2993 5.18932   5
   1   6  10 92.8946 5.52155   5
   1   6  10 90.8083 7.19644   2
  -2  -6 -10 4.73365 2.78712   3
   2   6  10 -1.2983 1.48080   5
   2   6  10 4.08021 2.20621   2
   2   6  10 1.35257 2.35569   5
  -3  -6 -10 2.07955 1.68091   1
  -3  -6 -10 5.64366 3.23520   3
   3   6  10 1.67363 2.39575   2
   3   6  10 -0.6610 2.64134   5
  -4  -6 -10 42.9047 6.34651   3
  -4  -6 -10 43.8815 4.12535   1
   4   6  10 31.4110 6.30201   2
   4   6  10 32.9676 6.42130   4
   4   6  10 53.0313 5.93818   5
  -5  -6 -10 4.39186 2.11702   1
  -5  -6 -10 8.29452 3.90700   3
   5   6  10 1.93425 2.80734   4
   5   6  10 5.07302 2.85963   5
   5   6  10 2.42643 3.03094   2
  -6  -6 -10 2.03798 2.56194   1
  -6  -6 -10 5.44978 3.96378   3
   6   6  10 2.06511 3.47862   2
   6   6  10 2.21875 3.19888   5
   6   6  10 -3.7515 3.10726   4
  -7  -6 -10 -2.0225 3.22853   1
  -7  -6 -10 12.3933 4.66206   3
   7   6  10 2.36030 3.86722   5
   7   6  10 8.97937 4.23904   2
   7   6  10 4.89315 3.96918   4
   4  -7 -10 -3.5555 3.86764   4
  -4   7  10 17.8177 5.08751   5
   3  -7 -10 5.18597 3.85918   4
  -3   7  10 2.25831 2.01788   5
  -3   7  10 7.06837 4.11852   2
   2  -7 -10 0.48832 2.98830   4
  -2   7  10 4.85574 2.00216   5
  -2   7  10 5.78188 3.42516   2
  -2   7  10 1.78969 1.56365   5
   1  -7 -10 23.8512 5.42644   3
  -1   7  10 26.1973 4.26790   5
  -1   7  10 20.3948 5.92440   2
  -1   7  10 20.0198 3.17406   5
   0  -7 -10 16.4531 5.21417   3
   0   7  10 24.0758 4.11413   5
   0   7  10 15.9662 3.31414   5
   0   7  10 22.5926 5.64415   2
  -1  -7 -10 17.5807 5.25930   3
   1   7  10 25.7798 5.40307   2
   1   7  10 28.5334 3.82262   5
   1   7  10 19.6200 4.24844   5
  -2  -7 -10 -0.9407 3.12021   3
   2   7  10 1.69055 2.07331   5
   2   7  10 1.27117 2.40124   2
  -3  -7 -10 18.1458 3.51517   1
  -3  -7 -10 17.0368 5.63864   3
   3   7  10 34.0045 6.12492   2
   3   7  10 25.7112 4.94765   5
   3   7  10 23.6425 4.73209   5
   3   7  10 31.9955 6.27327   4
  -4  -7 -10 -1.2840 1.84373   1
  -4  -7 -10 1.36220 3.26377   3
   4   7  10 -1.6419 2.99262   2
   4   7  10 2.69457 3.10019   4
   4   7  10 0.28672 2.30382   5
  -5  -7 -10 7.67938 2.70494   1
  -5  -7 -10 4.96423 3.75314   3
   5   7  10 5.31787 3.75805   4
   5   7  10 3.10259 3.17625   2
   5   7  10 6.62960 3.13223   5
  -6  -7 -10 4.85284 4.09448   3
  -6  -7 -10 -0.4536 2.77116   1
   6   7  10 9.73601 4.50023   4
   6   7  10 4.99447 3.74337   2
   6   7  10 -1.5114 3.05084   5
  -7  -7 -10 37.1147 10.2867   3
   7   7  10 34.5369 8.96875   5
   7   7  10 31.4038 9.32034   2
   7   7  10 38.3108 9.64018   4
  -3   8  10 3.34960 2.20566   5
  -3   8  10 5.40587 4.55468   2
  -2   8  10 12.3269 4.33703   2
  -2   8  10 7.01247 2.23382   5
  -2   8  10 9.09522 2.12187   5
  -1   8  10 79.4525 7.80522   1
  -1   8  10 81.8917 4.77849   5
  -1   8  10 75.2979 5.18602   5
  -1   8  10 68.1583 7.62939   2
   0  -8 -10 148.941 8.97994   3
   0   8  10 136.613 6.25447   5
   0   8  10 148.950 6.54558   5
   0   8  10 158.064 9.77305   2
   0   8  10 139.259 6.12946   1
  -1  -8 -10 69.7597 6.94893   3
   1   8  10 69.1630 4.86213   5
   1   8  10 67.2412 4.51245   1
   1   8  10 65.8910 5.19108   5
   1   8  10 60.8180 7.10261   2
  -2  -8 -10 -4.3438 2.96874   3
   2   8  10 2.08990 2.38528   5
   2   8  10 4.67804 2.69951   2
  -3  -8 -10 1.25768 3.45241   3
  -3  -8 -10 -2.2394 1.93919   1
   3   8  10 3.96606 2.82148   2
   3   8  10 -3.1053 1.87462   5
   3   8  10 0.11005 3.33852   4
  -4  -8 -10 126.985 9.60111   3
  -4  -8 -10 120.769 6.85073   1
   4   8  10 121.433 9.50992   2
   4   8  10 136.181 10.3577   4
   4   8  10 122.643 7.52219   5
  -5  -8 -10 79.9619 6.73189   1
  -5  -8 -10 66.6410 8.80293   3
   5   8  10 81.5235 9.47003   4
   5   8  10 78.9563 8.42018   2
   5   8  10 89.1101 7.87177   5
  -6  -8 -10 4.37235 4.94640   3
  -6  -8 -10 5.58105 3.48531   1
   6   8  10 -4.6756 3.22711   5
   6   8  10 -4.5635 3.79323   2
   6   8  10 -1.5976 3.59067   4
  -7  -8 -10 3.59944 6.12174   3
   7   8  10 -0.7517 4.36207   4
   7   8  10 5.04347 4.70563   2
  -2   9  10 66.7924 4.60306   5
  -2   9  10 66.7058 5.04361   5
  -2   9  10 58.9714 10.1846   2
  -1   9  10 158.302 6.36901   5
  -1   9  10 160.376 10.9060   2
  -1   9  10 148.244 6.33034   5
   0   9  10 92.8916 8.51986   2
   0   9  10 103.096 7.40754   1
   0   9  10 97.2908 5.37188   5
   0   9  10 93.0461 5.41074   5
   1   9  10 30.4447 4.59669   5
   1   9  10 20.2779 6.36874   2
   1   9  10 25.5962 4.72061   1
  -2  -9 -10 6.06810 4.12732   3
   2   9  10 6.74179 4.02380   4
   2   9  10 1.37910 1.92370   5
   2   9  10 -0.3946 2.21650   5
   2   9  10 5.30849 3.08581   2
  -3  -9 -10 4.10379 3.74365   3
  -3  -9 -10 -0.1699 2.14860   1
   3   9  10 7.55149 3.65766   4
   3   9  10 8.13351 3.62453   2
   3   9  10 3.70337 2.29557   5
  -4  -9 -10 16.5652 4.90059   3
   4   9  10 14.6953 3.98912   2
   4   9  10 22.6002 5.92334   5
  -5  -9 -10 10.8790 5.04598   3
  -5  -9 -10 4.36244 3.41812   1
   5   9  10 -2.4999 4.10736   4
   5   9  10 7.55690 3.26804   5
   5   9  10 3.72000 3.86513   2
  -6  -9 -10 -1.9852 3.86197   1
  -6  -9 -10 -0.1205 5.03892   3
   6   9  10 -4.1505 4.43673   4
   6   9  10 -3.1777 4.40004   2
  -1  10  10 35.2754 9.03661   2
   0  10  10 26.5776 7.81344   2
   0  10  10 46.5318 4.58318   5
   1  10  10 29.3612 8.53196   1
   1  10  10 29.1633 4.45504   5
   1  10  10 52.8094 10.4044   4
   1  10  10 23.0750 6.62783   2
   1  10  10 21.0895 4.63540   5
  -2 -10 -10 -3.1954 4.25648   3
   2  10  10 1.67759 2.37872   5
   2  10  10 3.62257 4.45309   4
   2  10  10 3.88890 3.61483   2
  -3 -10 -10 12.8941 4.89044   3
   3  10  10 -0.0371 3.42857   2
   3  10  10 4.57866 2.60033   5
   3  10  10 -2.3023 3.70300   4
  -4 -10 -10 190.891 12.4012   3
  -4 -10 -10 173.247 9.65366   1
   4  10  10 180.493 12.9649   4
   4  10  10 185.518 11.3211   2
   4  10  10 180.719 9.20568   5
  -5 -10 -10 35.3028 7.77515   1
  -5 -10 -10 29.2972 6.16670   3
   5  10  10 33.4344 6.54216   4
   5  10  10 39.3411 7.25555   5
   1  11  10 103.385 5.99735   5
   1  11  10 113.803 10.4272   2
   1  11  10 108.055 12.3776   4
   1  11  10 105.028 6.13274   5
   2  11  10 -2.0392 4.08564   2
   2  11  10 -1.1293 2.65716   5
   2  11  10 -6.2497 4.66598   4
   3  11  10 148.183 13.1499   4
   3  11  10 165.944 11.9193   2
   3  11  10 153.121 8.30153   5
   2   6 -11 22.3159 5.88320   3
   2   6 -11 45.8339 11.8265   4
   1   6 -11 32.2289 10.4482   4
   1   6 -11 19.2350 5.59450   3
   0   6 -11 2.31274 4.59652   4
  -1   6 -11 5.34086 4.98900   3
  -1   6 -11 9.80545 4.63505   4
   1  -6  11 9.59066 4.11616   2
  -2   6 -11 4.77912 4.63040   3
  -2   6 -11 7.06936 4.88161   5
   2  -6  11 8.91391 4.18558   2
  -3   6 -11 14.9194 5.37917   5
  -3   6 -11 19.9974 6.15867   3
   3  -6  11 30.2560 9.50942   2
   3   5 -11 31.5761 11.2844   4
   3   5 -11 38.2503 9.30552   3
  -3  -5  11 51.6079 12.9749   5
   2   5 -11 78.1354 9.19688   3
   2   5 -11 98.0806 10.6902   4
  -2  -5  11 63.0090 9.71407   5
  -2  -5  11 88.6409 8.60707   2
   1   5 -11 16.5334 4.75057   3
   1   5 -11 7.15163 4.37261   4
  -1  -5  11 28.6178 8.62084   5
  -1  -5  11 11.2995 3.59595   2
   0   5 -11 31.3886 8.32533   4
   0   5 -11 36.3030 8.80492   5
   0   5 -11 24.9773 7.33591   3
   0  -5  11 26.2634 6.75889   2
   0  -5  11 17.3462 4.78569   5
  -1   5 -11 1.52438 4.01728   5
  -1   5 -11 3.72777 3.98533   4
  -1   5 -11 0.25154 3.91742   3
  -1   5 -11 2.20548 5.31369   1
   1  -5  11 -8.5308 4.83916   5
   1  -5  11 -0.4044 3.20050   2
  -2   5 -11 3.24039 4.57217   5
  -2   5 -11 2.72972 3.50001   4
  -2   5 -11 -1.1733 4.46352   3
  -2   5 -11 -2.1411 3.13775   1
   2  -5  11 -1.2366 3.47958   2
  -3   5 -11 -0.9982 3.25784   1
  -3   5 -11 4.10966 4.93208   3
  -3   5 -11 5.65474 4.73328   5
   3  -5  11 7.20313 4.09149   2
  -4   5 -11 25.8309 9.04356   3
  -4   5 -11 -1.6818 3.86985   1
   4  -5  11 2.51919 4.29417   2
   4   4 -11 2.03789 5.83776   4
  -4  -4  11 2.59542 4.13612   2
  -4  -4  11 -0.1553 4.96723   5
   3   4 -11 12.8317 5.01803   4
   3   4 -11 8.36680 4.41819   3
  -3  -4  11 24.6826 7.82039   2
   2   4 -11 14.9794 4.28878   3
   2   4 -11 32.2504 9.01376   4
  -2  -4  11 24.2295 7.45473   2
  -2  -4  11 29.7243 8.92072   5
   1   4 -11 97.2654 9.56146   4
   1   4 -11 97.6284 8.58872   3
  -1  -4  11 80.7528 8.01882   2
  -1  -4  11 88.2235 9.35305   5
   0   4 -11 1.34095 3.56553   4
   0   4 -11 -0.8456 3.72121   3
   0   4 -11 3.52099 4.10152   5
   0  -4  11 -0.3626 2.82831   2
   0  -4  11 0.74312 3.52744   5
  -1   4 -11 7.46558 3.11534   5
  -1   4 -11 12.1985 4.09083   3
  -1   4 -11 16.5127 4.66028   1
  -1   4 -11 25.3586 7.52057   4
   1  -4  11 11.2157 3.26362   2
  -2   4 -11 10.6650 3.45892   4
  -2   4 -11 10.0257 4.13884   3
  -2   4 -11 6.46442 3.33696   5
  -2   4 -11 6.78993 2.59025   1
   2  -4  11 21.7289 7.29294   5
   2  -4  11 10.0364 3.62736   2
  -3   4 -11 27.6315 6.00742   1
  -3   4 -11 32.5728 8.59871   5
  -3   4 -11 15.8033 4.60879   3
   3  -4  11 38.3320 10.5956   5
  -4   4 -11 -0.4316 3.39364   1
  -4   4 -11 -3.2957 4.30053   3
   4  -4  11 6.49861 4.16605   2
  -5   4 -11 -3.0519 4.70492   3
  -5   4 -11 7.30792 4.54419   1
   5  -4  11 8.76139 4.87914   2
   4   3 -11 -0.5963 4.75591   4
  -4  -3  11 -4.1368 4.08587   5
  -4  -3  11 4.36770 4.01929   2
   3   3 -11 1.17112 3.94481   4
   3   3 -11 -1.9565 3.74682   3
  -3  -3  11 -2.5054 3.68805   5
  -3  -3  11 1.94544 3.23562   2
   2   3 -11 43.0419 6.89522   3
   2   3 -11 24.8168 8.05247   4
  -2  -3  11 33.8775 6.87819   2
  -2  -3  11 35.0099 8.25170   5
   1   3 -11 10.5102 3.84114   4
   1   3 -11 6.76271 3.47484   3
  -1  -3  11 2.01774 2.92660   5
  -1  -3  11 10.8210 3.43226   2
   0   3 -11 20.5352 6.75270   5
   0   3 -11 18.7644 6.08665   4
   0   3 -11 9.03095 3.52216   3
   0  -3  11 13.1224 3.62948   5
  -1   3 -11 0.04451 2.92910   4
  -1   3 -11 2.20535 3.15651   3
  -1   3 -11 -0.4449 3.15022   5
   1  -3  11 5.74806 2.92176   2
   1  -3  11 0.32041 2.89113   5
  -2   3 -11 64.6935 8.10398   5
  -2   3 -11 79.6220 8.02500   3
  -2   3 -11 71.5606 5.05170   1
  -2   3 -11 76.6096 7.50722   4
   2  -3  11 62.0937 7.25513   5
   2  -3  11 81.9501 8.10359   2
  -3   3 -11 0.02599 2.47910   1
  -3   3 -11 1.79010 3.75480   5
  -3   3 -11 0.62285 3.33855   3
  -3   3 -11 2.34532 3.18699   4
   3  -3  11 -2.1161 2.94023   5
   3  -3  11 2.61430 3.47487   2
  -4   3 -11 14.3787 4.51832   5
  -4   3 -11 22.4982 6.10285   1
  -4   3 -11 24.6092 7.71670   3
   4  -3  11 25.9207 8.03205   2
  -5   3 -11 8.16653 5.57445   3
  -5   3 -11 -4.7533 3.19897   1
   5  -3  11 -0.4112 3.79522   2
   4   2 -11 6.54721 4.22561   4
  -4  -2  11 5.31799 4.01049   2
  -4  -2  11 5.43489 4.55056   5
   3   2 -11 1.39162 3.79277   4
   3   2 -11 0.53327 3.47666   3
  -3  -2  11 0.98404 3.20044   2
  -3  -2  11 1.90681 3.51657   5
   2   2 -11 0.03502 3.21125   3
   2   2 -11 2.38145 3.55386   4
  -2  -2  11 1.44797 2.98096   2
  -2  -2  11 -3.6074 2.82517   5
   1   2 -11 -0.0664 3.04255   4
   1   2 -11 1.34152 3.36807   3
  -1  -2  11 -2.2101 2.62285   2
  -1  -2  11 4.94663 3.00119   5
   0   2 -11 19.3988 6.69276   4
   0   2 -11 13.4657 3.96320   5
   0   2 -11 9.36165 3.42395   3
   0  -2  11 18.9943 6.16519   5
   0  -2  11 10.2458 2.78064   2
  -1   2 -11 4.20290 3.07266   4
  -1   2 -11 -0.3733 3.13994   3
  -1   2 -11 -0.4910 2.89806   5
   1  -2  11 -3.7650 2.93906   5
   1  -2  11 -3.7127 2.39251   2
  -2   2 -11 18.6089 5.72272   4
  -2   2 -11 24.9851 6.22834   3
  -2   2 -11 24.7051 7.18771   5
   2  -2  11 27.3495 6.54015   5
   2  -2  11 16.4896 5.54253   2
  -3   2 -11 -1.3174 3.09079   3
  -3   2 -11 -0.7620 3.53743   5
  -3   2 -11 -0.5102 2.04612   1
   3  -2  11 -3.7631 2.85157   5
   3  -2  11 1.88766 3.00889   2
  -4   2 -11 20.3566 5.08548   1
  -4   2 -11 12.9935 4.07708   5
  -4   2 -11 29.0919 7.71521   3
   4  -2  11 8.72703 3.66973   5
   4  -2  11 6.60396 3.16660   2
  -5   2 -11 10.0586 3.54407   1
  -5   2 -11 10.5930 5.27735   3
   5  -2  11 4.03215 4.56702   5
   5  -2  11 11.0660 3.74087   4
  -6   2 -11 4.81027 5.49090   3
  -6   2 -11 -3.4008 3.62512   1
   6  -2  11 -2.7091 4.26306   2
   5   1 -11 -9.9246 4.81906   4
  -5  -1  11 1.01050 4.74304   2
  -5  -1  11 -6.4969 3.85990   5
   4   1 -11 12.0572 4.52396   4
  -4  -1  11 14.6866 3.80382   5
  -4  -1  11 12.7511 4.50071   2
   3   1 -11 84.3144 7.14596   3
   3   1 -11 101.323 9.37427   4
  -3  -1  11 78.4121 7.97068   2
  -3  -1  11 76.4656 7.38471   5
   2   1 -11 -2.1494 3.27087   3
   2   1 -11 -1.0520 2.87332   4
  -2  -1  11 -0.8007 2.59448   2
  -2  -1  11 1.28865 2.91009   5
   1   1 -11 -1.2041 2.79185   3
   1   1 -11 -1.1544 2.69471   4
  -1  -1  11 -1.0557 2.35762   2
  -1  -1  11 1.01341 2.51845   5
   0   1 -11 25.4527 6.08052   5
   0   1 -11 8.33611 3.18780   4
   0   1 -11 23.0223 6.15520   3
   0  -1  11 12.5300 2.95440   5
   0  -1  11 11.2420 3.05460   2
  -1   1 -11 3.94911 2.65103   4
  -1   1 -11 4.42148 3.01134   5
  -1   1 -11 12.2196 3.87547   3
   1  -1  11 3.10920 2.40870   5
   1  -1  11 3.37052 2.93809   2
  -2   1 -11 198.170 9.86468   5
  -2   1 -11 208.236 10.0908   4
  -2   1 -11 228.210 11.2146   3
   2  -1  11 208.555 10.4726   2
   2  -1  11 224.182 10.8378   5
  -3   1 -11 52.3746 6.92704   3
   3  -1  11 47.3708 7.14869   5
   3  -1  11 41.5360 6.47557   2
  -4   1 -11 74.0372 8.47292   3
  -4   1 -11 62.8617 7.28307   5
  -4   1 -11 78.0061 5.50414   1
   4  -1  11 65.1672 8.20604   5
   4  -1  11 66.1381 7.94928   2
  -5   1 -11 9.82586 4.38656   3
  -5   1 -11 5.05882 2.91763   1
   5  -1  11 -0.0741 2.92225   4
   5  -1  11 2.66864 4.27721   5
   5  -1  11 5.38722 3.49954   2
  -6   1 -11 7.94852 3.96966   1
  -6   1 -11 10.2593 5.11239   3
   6  -1  11 12.9901 5.94573   5
   6  -1  11 4.32321 3.95250   2
  -5   0  11 6.48072 4.79725   2
  -5   0  11 11.6457 4.64930   5
   4   0 -11 2.82865 4.08511   4
  -4   0  11 2.49760 3.97515   2
  -4   0  11 3.81553 3.45894   5
   3   0 -11 27.0980 5.47063   3
   3   0 -11 17.2322 3.92966   4
  -3   0  11 23.2737 6.66044   2
  -3   0  11 39.6579 6.71104   5
   2   0 -11 4.96462 3.03459   4
   2   0 -11 1.48242 2.93989   3
  -2   0  11 0.98987 2.69687   2
  -2   0  11 0.26715 2.44191   5
   1   0 -11 3.72443 3.05108   4
   1   0 -11 -0.3543 3.01465   3
  -1   0  11 -2.4335 2.07412   5
  -1   0  11 1.04159 2.15345   2
   0   0 -11 27.5361 6.18401   4
   0   0 -11 34.2909 6.82757   5
   0   0 -11 28.6493 5.51478   3
   0   0  11 26.2903 5.22905   2
   0   0  11 19.2501 5.20794   5
  -1   0 -11 3.82122 2.78045   4
  -1   0 -11 2.99782 2.94193   3
  -1   0 -11 -1.6762 2.90015   5
   1   0  11 -1.6950 2.24194   2
   1   0  11 3.00963 2.49447   5
   1   0  11 0.75006 3.14609   5
  -2   0 -11 1.66783 2.72014   4
  -2   0 -11 3.08702 2.33125   5
  -2   0 -11 1.23825 2.75986   3
   2   0  11 -1.8183 2.28617   2
   2   0  11 -4.4341 2.21745   5
  -3   0 -11 71.9763 7.18060   3
  -3   0 -11 52.3363 7.07757   5
   3   0  11 64.6696 6.60569   2
   3   0  11 60.5833 7.05117   5
  -4   0 -11 -1.5935 1.87278   1
  -4   0 -11 -2.5173 3.27432   3
  -4   0 -11 3.74669 3.31210   5
   4   0  11 -0.6578 2.64241   2
   4   0  11 0.21922 2.77449   5
  -5   0 -11 3.80046 4.08578   3
  -5   0 -11 -1.3055 2.44537   1
   5   0  11 1.64169 2.89626   4
   5   0  11 1.29513 4.08254   5
   5   0  11 -4.2861 2.62722   2
  -6   0 -11 7.43378 3.31820   1
  -6   0 -11 0.79994 4.55522   3
   6   0  11 -0.4947 3.55976   2
   6   0  11 3.91722 4.55356   5
   6   0  11 6.84300 3.66442   4
  -7   0 -11 -6.4299 3.94254   1
  -7   0 -11 0.43058 5.43578   3
   7   0  11 -3.0621 4.29831   2
   5  -1 -11 8.13892 4.41924   4
  -5   1  11 2.39828 3.72141   5
  -5   1  11 30.0049 9.98023   2
   4  -1 -11 17.1000 4.70396   4
  -4   1  11 18.6325 5.96373   5
  -4   1  11 17.5477 3.98633   2
   3  -1 -11 0.75227 3.07515   4
   3  -1 -11 -0.8587 2.63962   3
  -3   1  11 -1.5988 2.67964   5
  -3   1  11 -0.5313 3.26095   2
   2  -1 -11 -1.5466 2.45514   3
   2  -1 -11 6.69351 3.47736   4
  -2   1  11 -3.5324 2.06264   5
  -2   1  11 0.54943 2.52333   2
   1  -1 -11 20.6240 6.69440   4
   1  -1 -11 20.6838 5.23455   3
  -1   1  11 16.6137 5.09004   2
  -1   1  11 17.9849 5.05961   5
   0  -1 -11 64.5587 6.77298   4
   0  -1 -11 50.5239 6.26460   5
   0  -1 -11 59.9355 6.23132   3
   0   1  11 56.3859 6.90202   5
   0   1  11 65.7612 5.93006   5
   0   1  11 58.9850 6.11847   2
  -1  -1 -11 7.26636 2.50667   5
  -1  -1 -11 8.75133 3.14122   4
  -1  -1 -11 4.91961 3.08489   3
   1   1  11 4.20642 2.63101   5
   1   1  11 -2.5556 2.69083   5
   1   1  11 2.34074 2.38318   2
  -2  -1 -11 2.63243 3.20893   3
  -2  -1 -11 4.06390 2.79946   4
   2   1  11 0.01157 2.16160   5
   2   1  11 1.94643 3.46515   5
   2   1  11 -1.3581 2.20820   2
  -3  -1 -11 -0.5944 2.92314   3
  -3  -1 -11 3.70640 2.90641   5
   3   1  11 1.01592 2.34155   2
   3   1  11 0.24018 2.79374   5
  -4  -1 -11 1.91202 3.36676   3
  -4  -1 -11 4.11759 3.95917   5
   4   1  11 3.80079 2.53808   2
   4   1  11 2.58616 2.99818   5
  -5  -1 -11 13.4524 2.79772   1
  -5  -1 -11 20.6647 6.45677   3
   5   1  11 24.4937 7.46749   5
   5   1  11 25.9115 6.50795   4
   5   1  11 17.3986 4.13682   2
  -6  -1 -11 14.3229 3.39452   1
  -6  -1 -11 14.0216 4.57461   3
   6   1  11 26.8360 7.54886   2
   6   1  11 13.0221 3.62342   4
   6   1  11 16.8202 4.44475   5
  -7  -1 -11 9.88354 5.38071   3
  -7  -1 -11 3.85626 3.92241   1
   7   1  11 -4.9086 4.06355   2
   7   1  11 2.61131 5.47239   5
   7   1  11 6.15604 4.11633   4
   5  -2 -11 79.4157 10.4244   4
  -5   2  11 80.8918 9.04399   5
  -5   2  11 66.6358 9.94281   2
   4  -2 -11 35.3261 8.89626   4
  -4   2  11 31.0219 6.45518   5
  -4   2  11 23.9436 8.31722   2
   3  -2 -11 18.1130 5.17363   3
   3  -2 -11 21.7108 7.40523   4
  -3   2  11 18.3422 4.48128   2
  -3   2  11 12.5958 3.12524   5
   2  -2 -11 3.92484 2.66895   3
   2  -2 -11 1.04787 3.01115   4
  -2   2  11 4.57376 2.36571   5
  -2   2  11 -0.5401 2.42167   2
   1  -2 -11 0.65534 2.70087   3
   1  -2 -11 4.60564 2.87382   4
  -1   2  11 -0.0595 1.99721   5
  -1   2  11 -0.8677 2.34469   2
   0  -2 -11 117.622 8.31107   4
   0  -2 -11 95.7410 8.60363   5
   0  -2 -11 99.2731 6.81544   3
   0   2  11 109.780 7.81052   2
   0   2  11 98.9255 6.72658   5
   0   2  11 108.225 6.93680   5
  -1  -2 -11 22.9871 5.10271   3
  -1  -2 -11 21.5085 5.10759   5
  -1  -2 -11 22.8092 5.22658   4
   1   2  11 26.2138 5.23427   2
   1   2  11 17.0632 5.49322   5
   1   2  11 26.9617 4.87165   5
  -2  -2 -11 34.7126 5.71763   4
  -2  -2 -11 55.5803 5.91433   5
  -2  -2 -11 47.8419 5.82356   3
   2   2  11 45.9952 6.68119   5
   2   2  11 47.6602 5.93085   2
   2   2  11 54.8164 5.82736   5
  -3  -2 -11 2.86300 2.65935   5
  -3  -2 -11 1.09452 2.86155   3
   3   2  11 -2.1018 2.47473   5
   3   2  11 -2.3303 2.37009   2
  -4  -2 -11 1.55826 2.90076   3
   4   2  11 0.66397 2.48324   5
   4   2  11 16.4010 5.81088   2
  -5  -2 -11 4.43610 3.42221   3
  -5  -2 -11 0.99871 2.07710   1
   5   2  11 21.8591 7.01766   2
   5   2  11 0.28671 2.84682   4
   5   2  11 -1.3098 2.91166   5
  -6  -2 -11 38.6774 5.82665   1
  -6  -2 -11 44.1023 8.22646   3
   6   2  11 44.0469 7.67726   4
   6   2  11 27.0831 7.85650   5
   6   2  11 47.7315 8.38393   2
  -7  -2 -11 7.88056 5.35540   3
  -7  -2 -11 6.05006 3.83227   1
   7   2  11 9.51782 3.97451   2
   7   2  11 12.6477 5.41991   5
  -5   3  11 24.9260 7.64455   5
   4  -3 -11 0.83599 3.76336   4
  -4   3  11 10.7595 3.05158   5
  -4   3  11 33.6927 8.73603   2
   3  -3 -11 3.72448 2.78973   3
   3  -3 -11 5.01121 3.81958   4
  -3   3  11 22.9283 7.14726   2
  -3   3  11 1.59254 2.18678   5
   2  -3 -11 1.76727 2.98587   3
   2  -3 -11 -2.2695 2.94898   4
  -2   3  11 3.40285 2.20561   5
  -2   3  11 0.43211 2.57357   2
   1  -3 -11 8.21294 3.25129   4
   1  -3 -11 3.77300 2.78272   3
  -1   3  11 4.30399 3.00944   5
  -1   3  11 5.53637 2.52780   2
  -1   3  11 5.84777 2.25130   5
   0  -3 -11 6.50773 2.79747   3
   0  -3 -11 2.96261 2.78648   4
   0   3  11 0.13395 1.84468   5
   0   3  11 2.05105 2.17100   2
   0   3  11 0.86975 2.51656   5
  -1  -3 -11 5.73692 2.47950   5
  -1  -3 -11 -2.2015 2.55625   3
  -1  -3 -11 0.36910 2.33230   4
   1   3  11 -0.0006 2.06380   2
   1   3  11 -1.9575 2.43208   5
   1   3  11 -3.4201 1.72974   5
  -2  -3 -11 10.0543 3.32350   3
  -2  -3 -11 12.0964 3.41691   5
   2   3  11 22.3828 5.47956   5
   2   3  11 19.6763 5.13078   5
   2   3  11 7.03448 2.83979   2
  -3  -3 -11 0.13155 2.78570   3
   3   3  11 1.99405 2.19479   5
   3   3  11 1.57249 2.38800   2
  -4  -3 -11 1.61597 3.29561   3
   4   3  11 2.55451 2.69948   2
  -5  -3 -11 3.48500 2.33629   1
  -5  -3 -11 5.92663 3.90958   3
   5   3  11 -0.8665 2.82923   2
   5   3  11 -1.5232 3.28266   4
   5   3  11 4.89928 3.16704   5
  -6  -3 -11 5.22481 4.40392   3
  -6  -3 -11 16.1891 5.17933   1
   6   3  11 -1.2291 3.25270   5
   6   3  11 4.69075 3.37397   2
   6   3  11 6.02906 3.75154   4
  -7  -3 -11 -3.5125 3.26726   1
  -7  -3 -11 7.70870 5.46750   3
   7   3  11 -1.3227 4.12477   4
   7   3  11 -3.0139 3.86069   2
   7   3  11 -0.6043 4.26131   5
   4  -4 -11 3.41794 4.51858   4
  -4   4  11 4.10401 3.15207   5
  -4   4  11 11.2158 4.87749   2
   3  -4 -11 -0.1726 3.03910   4
   3  -4 -11 0.92231 3.58760   3
  -3   4  11 -1.1078 2.02493   5
  -3   4  11 7.03875 3.47372   2
   2  -4 -11 10.3535 3.65640   4
   2  -4 -11 19.7112 5.40788   3
  -2   4  11 7.95837 2.26973   5
  -2   4  11 9.65710 3.52412   2
   1  -4 -11 6.81232 3.22879   4
   1  -4 -11 2.65942 3.01596   3
  -1   4  11 2.94313 1.73686   5
  -1   4  11 2.28986 2.43016   2
  -1   4  11 2.29219 2.82374   5
   0  -4 -11 46.5415 6.62110   4
   0  -4 -11 41.0186 6.19603   3
   0   4  11 46.3134 5.02263   5
   0   4  11 48.8163 6.24613   2
   0   4  11 34.4238 4.39898   5
  -1  -4 -11 5.58528 2.53370   4
  -1  -4 -11 16.3281 4.60164   5
  -1  -4 -11 7.92615 3.02272   3
   1   4  11 16.3489 4.93613   2
   1   4  11 8.85578 2.59223   5
   1   4  11 3.28418 2.63146   5
  -2  -4 -11 4.74748 3.08618   3
   2   4  11 0.68848 2.64397   5
   2   4  11 -1.2445 2.40409   2
   2   4  11 1.30530 1.97128   5
  -3  -4 -11 4.71100 3.23463   3
   3   4  11 4.73728 2.71492   2
   3   4  11 17.8152 5.13032   5
  -4  -4 -11 6.37849 3.46110   3
   4   4  11 1.23286 2.64198   2
  -5  -4 -11 14.2013 4.00761   1
  -5  -4 -11 15.2675 4.30168   3
   5   4  11 22.6672 7.40915   4
   5   4  11 25.0354 6.91578   5
  -6  -4 -11 31.2809 5.67043   3
  -6  -4 -11 42.8313 6.08621   1
   6   4  11 31.6752 7.75392   4
   6   4  11 36.8360 8.68196   2
   6   4  11 53.6222 8.43742   5
  -7  -4 -11 -1.7726 5.16442   3
  -7  -4 -11 10.9027 3.90099   1
   7   4  11 0.34482 4.55336   5
   7   4  11 26.7523 9.45414   2
   7   4  11 8.56600 4.63397   4
   4  -5 -11 18.3826 5.35119   4
  -4   5  11 31.9835 6.03270   5
  -4   5  11 47.2863 9.82102   2
   3  -5 -11 -4.9217 3.37229   4
  -3   5  11 5.36124 3.61805   2
  -3   5  11 0.50607 2.15210   5
   2  -5 -11 -1.9962 2.79751   3
   2  -5 -11 1.10257 3.35900   4
  -2   5  11 -3.2000 1.69919   5
  -2   5  11 -0.6667 3.18114   2
   1  -5 -11 17.6375 5.48770   3
   1  -5 -11 14.4077 3.78979   4
  -1   5  11 17.3913 5.24935   5
  -1   5  11 17.0876 5.85027   2
  -1   5  11 18.2007 4.12944   5
   0  -5 -11 24.1281 5.98332   4
   0  -5 -11 30.1259 5.90141   3
   0   5  11 27.1232 4.34520   5
   0   5  11 20.8747 5.30400   2
  -1  -5 -11 11.9808 3.81162   3
   1   5  11 5.29931 2.37938   2
   1   5  11 18.1704 4.20744   5
   1   5  11 9.56531 2.67475   5
  -2  -5 -11 29.2137 5.82513   3
   2   5  11 30.0804 5.60665   5
   2   5  11 31.0262 5.85705   2
   2   5  11 36.4198 4.83737   5
  -3  -5 -11 5.55010 3.50256   3
   3   5  11 4.79092 2.54160   5
   3   5  11 3.42479 2.54664   2
  -4  -5 -11 -3.2089 3.33764   3
   4   5  11 -4.0072 2.57709   5
   4   5  11 -1.2336 2.51247   2
  -5  -5 -11 -1.5622 2.02132   1
   5   5  11 -2.5008 3.13744   4
   5   5  11 3.00193 3.11649   2
   5   5  11 1.58638 2.88533   5
  -6  -5 -11 -0.9204 2.74461   1
  -6  -5 -11 5.05568 4.17976   3
   6   5  11 1.55752 3.81392   4
   6   5  11 -2.2983 3.39663   5
   6   5  11 -3.0501 3.41616   2
  -7  -5 -11 -1.6124 5.29236   3
  -7  -5 -11 -0.1183 3.92813   1
   7   5  11 8.31426 4.65918   5
   7   5  11 3.11590 4.56945   4
   7   5  11 0.52053 3.98508   2
   4  -6 -11 -6.5428 4.42972   4
  -4   6  11 0.23826 2.48469   5
  -4   6  11 13.9387 5.70954   2
   3  -6 -11 2.03708 3.97845   4
  -3   6  11 2.03592 2.57058   5
  -3   6  11 8.79792 4.00705   2
   2  -6 -11 27.7391 6.04269   3
   2  -6 -11 20.4209 4.58028   4
  -2   6  11 23.8340 5.03534   2
  -2   6  11 24.7593 4.66039   5
   1  -6 -11 17.2301 5.88784   3
   1  -6 -11 10.8894 3.69312   4
  -1   6  11 15.9629 3.62131   5
  -1   6  11 10.7369 3.77563   5
  -1   6  11 30.2778 6.52563   2
   0  -6 -11 12.9261 3.42669   3
   0   6  11 10.1733 2.35717   5
   0   6  11 7.90095 3.02339   2
  -1  -6 -11 91.4398 7.51454   3
   1   6  11 83.6585 5.91068   5
   1   6  11 79.8777 6.52534   5
   1   6  11 75.2288 6.96666   2
  -2  -6 -11 49.8608 6.87212   3
   2   6  11 50.5470 6.78990   2
   2   6  11 44.1747 5.04852   5
   2   6  11 41.7937 8.48190   5
  -3  -6 -11 14.4069 3.78605   3
   3   6  11 14.7449 3.88337   2
   3   6  11 14.6779 4.78106   5
  -4  -6 -11 -0.9822 3.33821   3
  -4  -6 -11 0.05642 2.00007   1
   4   6  11 1.18880 3.16348   2
   4   6  11 -0.8374 2.40582   5
   4   6  11 5.08720 3.67674   4
  -5  -6 -11 0.05739 2.36878   1
  -5  -6 -11 0.88548 3.66106   3
   5   6  11 0.08395 3.50756   4
   5   6  11 -3.8835 3.20684   2
  -6  -6 -11 48.2638 9.04370   3
  -6  -6 -11 28.8039 5.95640   1
   6   6  11 54.6135 10.0384   4
   6   6  11 42.0718 8.72869   5
   6   6  11 32.3447 9.09653   2
   7   6  11 43.4762 9.86186   5
   7   6  11 24.1195 5.43350   4
   7   6  11 31.6245 9.77461   2
   3  -7 -11 33.7737 9.55217   4
  -3   7  11 19.8190 4.97828   5
   2  -7 -11 41.9733 8.33685   4
  -2   7  11 45.0194 5.23675   5
  -2   7  11 48.7252 9.28455   2
   1  -7 -11 34.5927 6.75923   3
  -1   7  11 21.7439 7.23987   2
  -1   7  11 16.1346 3.98015   5
   0   7  11 16.5587 4.97795   5
   0   7  11 -0.3582 2.75885   2
  -1  -7 -11 39.0344 6.81832   3
   1   7  11 61.9489 5.35990   5
   1   7  11 52.8383 5.69476   5
   1   7  11 43.1545 6.34711   2
  -2  -7 -11 102.413 8.51657   3
   2   7  11 106.946 8.60787   2
   2   7  11 98.3473 6.28858   5
  -3  -7 -11 15.5055 4.45824   3
   3   7  11 13.4294 2.80650   5
   3   7  11 21.6399 6.98416   2
  -4  -7 -11 29.0055 7.91119   3
   4   7  11 21.4893 4.92802   4
   4   7  11 13.3656 3.01804   5
   4   7  11 21.4454 7.60572   2
  -5  -7 -11 7.92909 5.00379   3
   5   7  11 0.37592 3.57313   2
   5   7  11 9.09026 3.85346   4
   5   7  11 0.44759 2.75793   5
  -6  -7 -11 4.71365 4.76109   3
   6   7  11 9.44949 4.42981   5
   6   7  11 7.06946 4.90166   2
  -2   8  11 52.6376 5.22661   5
  -2   8  11 57.0300 10.5287   2
  -1   8  11 22.7221 4.41086   5
  -1   8  11 21.8989 4.88915   2
   0  -8 -11 58.4396 7.98140   3
   0   8  11 42.6698 7.50502   2
   0   8  11 54.9090 5.69728   5
   0   8  11 49.4902 5.00148   5
  -1  -8 -11 3.59947 3.88515   3
   1   8  11 -2.2790 2.80189   2
   1   8  11 2.74251 2.10243   5
  -2  -8 -11 9.90298 4.70858   3
   2   8  11 11.8008 3.61998   2
  -3  -8 -11 6.84979 4.32391   3
   3   8  11 11.6206 3.98014   2
   3   8  11 22.9539 5.71464   5
   3   8  11 25.7764 8.57969   4
  -4  -8 -11 16.5343 5.01952   3
   4   8  11 20.0973 6.02591   5
   4   8  11 27.7513 7.98413   4
   4   8  11 16.6078 4.74968   2
  -5  -8 -11 -4.2804 4.61241   3
   5   8  11 3.87100 4.24784   2
   5   8  11 7.83068 3.33380   5
   5   8  11 4.67694 4.54889   4
  -6  -8 -11 11.3324 5.77381   3
   6   8  11 21.2485 5.77286   2
   6   8  11 32.7436 8.79022   5
   6   8  11 19.4761 6.00160   4
  -1   9  11 146.919 11.3228   2
  -1   9  11 143.528 6.78019   5
   0   9  11 5.58046 2.64529   5
   0   9  11 4.75140 3.80682   2
  -1  -9 -11 35.1282 8.11347   3
   1   9  11 29.5915 7.16299   2
  -2  -9 -11 91.2529 9.27633   3
   2   9  11 79.2691 9.20855   2
   2   9  11 83.6464 6.45496   5
   2   9  11 98.8790 10.5767   4
  -3  -9 -11 13.9875 5.11926   3
   3   9  11 10.6494 4.24370   2
   3   9  11 6.36321 2.69011   5
   3   9  11 13.7900 5.01882   4
  -4  -9 -11 9.46880 5.14276   3
   4   9  11 13.4852 3.55246   5
   4   9  11 12.0321 4.63984   4
   4   9  11 5.62669 4.23346   2
  -5  -9 -11 134.045 11.4741   3
   5   9  11 177.463 13.8763   4
   5   9  11 132.380 11.8821   2
   5   9  11 143.817 9.77582   5
   0  10  11 33.1013 8.90823   2
   1  10  11 11.6140 5.13399   4
   1  10  11 4.10733 2.70901   5
   1  10  11 5.75275 3.95128   2
  -2 -10 -11 35.8513 10.2300   3
   2  10  11 16.2952 4.68260   2
   2  10  11 15.8778 3.23259   5
   2  10  11 18.7206 5.49770   4
  -3 -10 -11 29.8598 9.22759   3
   3  10  11 35.1048 6.27561   5
   3  10  11 15.1953 4.68065   2
   3  10  11 22.0298 5.96143   4
  -4 -10 -11 2.48238 5.52856   3
   4  10  11 1.84252 3.38380   5
   4  10  11 0.21097 5.30051   4
   4  10  11 -4.3787 3.92272   2
   1   5 -12 -1.1322 5.27306   3
   1   5 -12 -1.8407 5.11780   4
  -1  -5  12 4.00518 5.86713   2
   0   5 -12 65.0998 11.4522   4
   0  -5  12 60.9019 9.68761   2
  -1   5 -12 -2.1517 5.08805   3
  -1   5 -12 5.68176 4.96362   4
   1  -5  12 -1.8991 4.38926   2
  -2   5 -12 -7.8539 4.70348   3
  -2   5 -12 -0.9992 5.92149   4
   2  -5  12 -2.6057 4.28958   2
   2   4 -12 4.12437 5.44768   4
   2   4 -12 0.47757 4.72556   3
  -2  -4  12 -7.6325 4.14108   5
  -2  -4  12 0.41784 3.88531   2
   1   4 -12 58.6898 9.00746   3
   1   4 -12 68.5645 10.2304   4
  -1  -4  12 66.9198 10.4992   5
  -1  -4  12 60.6358 9.65671   2
   0   4 -12 36.5923 8.49088   3
   0   4 -12 53.9182 10.6595   4
   0  -4  12 30.0468 9.51634   5
   0  -4  12 46.1233 8.29247   2
  -1   4 -12 31.5980 9.26121   4
  -1   4 -12 27.2449 8.30149   3
   1  -4  12 39.1287 8.51095   2
  -2   4 -12 3.59482 4.93988   3
  -2   4 -12 -5.0656 3.44036   4
   2  -4  12 -1.9884 3.99330   2
  -3   4 -12 65.8001 10.1306   3
   3  -4  12 52.6560 9.42124   2
   3   3 -12 9.00678 5.51666   3
   3   3 -12 -7.4555 4.93670   4
  -3  -3  12 -7.0975 4.83220   5
  -3  -3  12 1.31806 4.37318   2
   2   3 -12 4.15458 4.70025   3
  -2  -3  12 11.5179 4.84406   5
  -2  -3  12 26.6888 8.60105   2
   1   3 -12 2.83811 4.37665   4
   1   3 -12 5.64519 4.43647   3
  -1  -3  12 -0.3612 4.07338   5
  -1  -3  12 9.36154 3.73647   2
   0   3 -12 -0.6186 4.01592   4
   0   3 -12 4.16305 4.23168   3
   0  -3  12 -1.7896 3.48289   2
   0  -3  12 6.46791 3.75221   5
  -1   3 -12 8.29004 4.49604   3
  -1   3 -12 1.46548 3.56816   4
   1  -3  12 31.4483 8.98766   5
   1  -3  12 6.24221 3.47381   2
  -2   3 -12 -6.0504 3.22102   4
  -2   3 -12 -0.9530 4.68087   3
   2  -3  12 3.61340 4.26480   5
   2  -3  12 6.90333 4.05547   2
  -3   3 -12 4.67285 4.64328   3
   3  -3  12 4.81908 4.50217   2
   3  -3  12 1.76445 3.96782   5
  -4   3 -12 71.2942 10.4539   3
   4  -3  12 44.5692 9.85855   2
   3   2 -12 137.790 12.5160   4
   3   2 -12 120.842 9.97679   3
  -3  -2  12 118.508 11.6358   5
  -3  -2  12 109.374 9.92180   2
   2   2 -12 54.0087 8.58877   3
   2   2 -12 53.5696 9.28773   4
  -2  -2  12 66.0820 8.75886   2
   1   2 -12 9.73286 3.91923   4
  -1  -2  12 2.00368 3.41030   2
  -1  -2  12 6.03649 3.84284   5
   0   2 -12 18.6276 6.55280   3
   0   2 -12 11.0122 4.41428   4
   0  -2  12 9.64004 3.86320   2
   0  -2  12 3.76721 3.41781   5
  -1   2 -12 -0.4386 3.46837   3
  -1   2 -12 -1.6274 3.60997   4
   1  -2  12 -1.8020 3.31750   5
   1  -2  12 -0.3240 3.54639   2
  -2   2 -12 43.8451 7.99385   3
   2  -2  12 36.7477 7.30290   2
  -3   2 -12 140.147 10.7859   3
   3  -2  12 145.039 10.4908   2
   3  -2  12 103.378 10.1478   5
  -4   2 -12 36.4586 9.19638   3
   4  -2  12 16.7413 4.70505   5
   4  -2  12 22.5977 7.55869   2
  -5   2 -12 -0.5134 4.87760   3
   5  -2  12 -2.3590 4.09935   2
   4   1 -12 -4.1088 5.05896   4
  -4  -1  12 4.14855 4.29676   5
  -4  -1  12 6.97971 4.59984   2
   3   1 -12 5.11543 4.28417   4
   3   1 -12 1.97022 3.97139   3
  -3  -1  12 -0.4432 3.54893   2
  -3  -1  12 3.45845 4.00090   5
   2   1 -12 91.8745 9.00006   3
   2   1 -12 99.2587 9.65978   4
  -2  -1  12 109.223 9.83131   5
  -2  -1  12 102.333 9.17781   2
   1   1 -12 -0.5170 3.70506   3
   1   1 -12 -0.5921 3.89623   4
  -1  -1  12 0.26002 2.94581   2
  -1  -1  12 -3.4918 2.91591   5
   0   1 -12 2.81427 3.32189   4
   0   1 -12 6.86726 4.19561   3
   0  -1  12 6.09551 3.31265   5
   0  -1  12 6.96506 3.66746   2
  -1   1 -12 5.66136 3.63410   4
  -1   1 -12 7.38377 4.28587   3
   1  -1  12 3.88573 3.72341   5
   1  -1  12 6.05478 3.49310   2
  -2   1 -12 9.47996 4.63743   3
  -2   1 -12 4.31893 3.70699   4
   2  -1  12 6.71305 3.47823   5
   2  -1  12 4.53347 3.17623   2
  -3   1 -12 9.38925 4.54233   3
   3  -1  12 10.1829 3.75221   2
   3  -1  12 14.3318 4.41026   5
  -4   1 -12 9.04939 4.74065   3
   4  -1  12 3.63488 4.88958   5
   4  -1  12 1.53747 3.65355   2
  -5   1 -12 10.1099 5.19272   3
   5  -1  12 8.79261 5.14273   5
   5  -1  12 9.57081 3.70020   4
   5  -1  12 8.27052 4.10072   2
   4   0 -12 90.6574 11.3668   4
  -4   0  12 56.0663 9.77616   2
  -4   0  12 78.2941 9.78381   5
   3   0 -12 129.940 8.64134   3
   3   0 -12 127.739 10.9992   4
  -3   0  12 109.559 9.56560   2
  -3   0  12 123.643 9.59393   5
   2   0 -12 26.6598 8.46291   4
   2   0 -12 4.85110 4.04124   3
  -2   0  12 -1.2333 3.04720   5
  -2   0  12 3.85394 3.61670   2
   1   0 -12 6.32584 3.96474   3
   1   0 -12 0.28997 3.69248   4
  -1   0  12 1.83954 2.87205   2
  -1   0  12 6.83818 3.02109   5
   0   0 -12 72.8747 8.54104   4
   0   0 -12 70.1453 7.63670   3
   0   0  12 75.5392 7.89044   5
   0   0  12 74.7312 8.00658   2
  -1   0 -12 91.2373 8.58104   3
  -1   0 -12 85.1458 8.49770   4
   1   0  12 67.7580 8.19153   5
   1   0  12 89.0648 8.19620   2
  -2   0 -12 63.0731 8.19327   3
  -2   0 -12 52.8592 7.22241   4
   2   0  12 58.5897 8.11703   5
   2   0  12 40.9614 7.43482   2
  -3   0 -12 1.11548 3.79300   3
   3   0  12 1.11284 2.92626   2
   3   0  12 6.31623 3.65322   5
  -4   0 -12 6.51532 4.44941   3
   4   0  12 3.23959 3.40556   5
   4   0  12 -0.2637 3.37247   2
  -5   0 -12 23.4143 5.76566   3
   5   0  12 24.0384 5.87199   5
   5   0  12 18.2939 4.39553   2
   5   0  12 35.7629 8.28695   4
  -6   0 -12 18.5012 5.74734   3
   6   0  12 15.6455 6.46633   5
   4  -1 -12 113.425 11.5879   4
  -4   1  12 95.3240 11.5503   2
  -4   1  12 78.2669 9.56631   5
   3  -1 -12 8.18889 4.94244   4
   3  -1 -12 4.07902 4.76527   3
  -3   1  12 5.22686 3.78144   2
  -3   1  12 0.66430 3.52506   5
   2  -1 -12 0.94574 3.74106   4
   2  -1 -12 7.95516 3.67022   3
  -2   1  12 2.22535 3.35906   2
  -2   1  12 -2.6064 2.84659   5
   1  -1 -12 21.7978 5.99294   3
   1  -1 -12 10.7171 3.64768   4
  -1   1  12 12.1699 3.51962   2
   0  -1 -12 6.35198 3.57072   4
   0  -1 -12 3.31651 3.51832   3
   0   1  12 4.33721 2.93084   2
   0   1  12 3.93122 2.63288   5
  -1  -1 -12 99.7007 8.53857   3
  -1  -1 -12 100.891 8.42008   4
   1   1  12 102.602 8.31308   5
   1   1  12 115.986 9.17283   2
  -2  -1 -12 15.0361 4.17217   3
  -2  -1 -12 20.8486 6.72453   4
   2   1  12 35.3175 6.89384   2
   2   1  12 27.9351 6.93247   5
  -3  -1 -12 6.07413 4.09590   3
   3   1  12 5.45718 3.41468   5
   3   1  12 9.87847 3.62690   2
  -4  -1 -12 58.5775 8.18940   3
   4   1  12 48.7145 7.54066   2
   4   1  12 60.3479 8.78236   5
  -5  -1 -12 12.7924 4.57766   3
   5   1  12 11.7491 4.18349   2
   5   1  12 27.9216 8.48838   4
   5   1  12 10.8074 4.80338   5
  -6  -1 -12 17.7049 5.43166   3
   6   1  12 13.3066 4.68706   2
   6   1  12 34.2628 10.5623   5
   4  -2 -12 -5.8184 5.13647   4
  -4   2  12 -5.4408 4.53838   2
  -4   2  12 -4.9683 3.35131   5
   3  -2 -12 59.4018 9.67379   4
  -3   2  12 43.2523 7.01447   5
  -3   2  12 46.4028 8.41887   2
   2  -2 -12 -3.9824 3.37793   4
   2  -2 -12 -1.0303 3.43609   3
  -2   2  12 -3.1834 3.04170   2
  -2   2  12 -0.7784 2.72575   5
   1  -2 -12 -1.6100 3.09687   4
   1  -2 -12 -1.5940 3.19235   3
  -1   2  12 3.45804 2.57756   5
  -1   2  12 -1.9121 2.95090   2
   0  -2 -12 150.692 9.12307   3
   0  -2 -12 145.606 10.0243   4
   0   2  12 138.940 9.09617   2
   0   2  12 130.410 8.56042   5
  -1  -2 -12 9.80565 3.81009   4
  -1  -2 -12 10.4370 3.56735   3
   1   2  12 10.9038 3.45326   5
   1   2  12 20.7542 5.95847   2
  -2  -2 -12 -2.7496 3.09641   3
  -2  -2 -12 4.43891 3.24565   4
   2   2  12 8.20307 3.13301   5
   2   2  12 6.20024 2.98468   2
  -3  -2 -12 0.27000 3.44813   3
   3   2  12 0.64488 3.26127   2
   3   2  12 1.84613 2.81203   5
  -4  -2 -12 2.68270 3.63779   3
   4   2  12 4.16695 3.69690   2
   4   2  12 1.05090 3.21028   5
  -5  -2 -12 67.4350 9.06992   3
   5   2  12 56.4348 8.76208   4
   5   2  12 65.0740 9.47272   2
   5   2  12 37.1438 8.79674   5
   6   2  12 38.7316 8.54670   2
   6   2  12 33.0690 9.11917   4
   6   2  12 39.5060 10.1536   5
   4  -3 -12 19.9948 5.83420   4
  -4   3  12 36.3898 10.8436   2
  -4   3  12 18.5931 4.14478   5
   3  -3 -12 8.92945 4.59549   4
  -3   3  12 -3.5090 3.93313   2
  -3   3  12 -2.3774 2.69557   5
   2  -3 -12 26.2388 6.64346   3
   2  -3 -12 24.0853 8.13458   4
  -2   3  12 22.9960 7.60147   2
  -2   3  12 22.4322 5.82485   5
   1  -3 -12 -2.2113 3.05659   4
   1  -3 -12 -1.6762 3.20718   3
  -1   3  12 1.74099 2.93607   2
   0  -3 -12 23.8290 6.08271   4
   0  -3 -12 39.5630 6.50094   3
   0   3  12 30.1510 6.31213   2
  -1  -3 -12 3.99533 3.63112   3
  -1  -3 -12 5.76810 3.42184   4
   1   3  12 6.67031 3.02679   2
   1   3  12 1.25254 2.55115   5
  -2  -3 -12 29.1235 6.75503   3
   2   3  12 31.6309 5.86760   5
   2   3  12 35.4093 6.57494   2
  -3  -3 -12 0.47044 3.52559   3
   3   3  12 -2.8003 2.54745   2
   3   3  12 -1.7915 2.98847   5
  -4  -3 -12 3.35192 4.05480   3
   4   3  12 0.27387 2.78323   2
   4   3  12 -0.7309 2.97654   5
  -5  -3 -12 2.29659 4.60315   3
   5   3  12 -0.5587 3.52550   4
   5   3  12 -3.7797 3.22043   5
  -6  -3 -12 -2.7165 4.91331   3
   6   3  12 6.58015 4.51094   4
   6   3  12 2.05563 4.50799   5
   6   3  12 -4.6579 3.54908   2
  -3   4  12 21.3074 6.16743   5
  -3   4  12 27.2884 5.82066   2
   2  -4 -12 3.50078 3.53523   3
   2  -4 -12 -1.2181 3.60791   4
  -2   4  12 5.80511 3.55466   2
  -2   4  12 1.46825 2.40523   5
   1  -4 -12 14.4468 3.88649   3
   1  -4 -12 15.2971 4.09664   4
  -1   4  12 24.6146 5.08827   5
  -1   4  12 24.9424 6.77912   2
   0  -4 -12 -3.8552 2.92756   4
   0  -4 -12 -6.3848 3.32206   3
   0   4  12 1.49618 2.36812   5
   0   4  12 1.90707 2.59362   2
  -1  -4 -12 61.7386 7.45511   3
  -1  -4 -12 63.8573 7.62726   4
   1   4  12 71.5389 6.35416   5
   1   4  12 57.9307 6.99785   2
  -2  -4 -12 16.9158 4.59200   3
   2   4  12 34.1378 5.89617   5
   2   4  12 23.3473 6.87732   2
  -3  -4 -12 1.84579 3.86449   3
   3   4  12 7.98641 3.68955   2
  -4  -4 -12 3.79486 4.23146   3
   4   4  12 1.94342 3.31577   2
  -5  -4 -12 -4.0310 4.38809   3
   5   4  12 7.73790 4.20076   5
   5   4  12 1.84878 4.31490   4
   6   4  12 -3.6523 4.18482   5
   6   4  12 4.63732 4.69555   4
   6   4  12 -2.8694 4.26894   2
   3  -5 -12 4.79301 4.96040   4
  -3   5  12 3.26681 2.91682   5
  -3   5  12 -0.8239 4.81547   2
   2  -5 -12 7.63006 3.91249   3
   2  -5 -12 1.26901 3.61240   4
  -2   5  12 2.94335 2.68129   5
  -2   5  12 5.96981 3.57156   2
   1  -5 -12 -5.0915 3.31211   4
   1  -5 -12 -1.3401 3.62046   3
  -1   5  12 2.29248 3.18480   2
  -1   5  12 0.00859 2.08843   5
   0  -5 -12 11.8818 3.82653   4
   0   5  12 6.52898 2.43923   5
   0   5  12 5.07972 2.77908   2
  -1  -5 -12 37.2960 7.21471   3
   1   5  12 30.5910 5.42955   5
   1   5  12 33.2882 6.68530   2
  -2  -5 -12 57.3817 7.68138   3
   2   5  12 79.2584 8.13556   2
   2   5  12 64.0504 6.27174   5
   3   5  12 -2.3819 2.62649   5
   3   5  12 5.54558 3.14219   2
  -4  -5 -12 -5.1630 3.86851   3
   4   5  12 -4.4954 2.59431   5
   4   5  12 1.20438 3.10761   2
  -5  -5 -12 -5.9675 4.09802   3
   5   5  12 3.62038 3.76812   2
   5   5  12 -0.3152 3.37657   5
   5   5  12 10.0792 4.42149   4
  -6  -5 -12 14.2662 5.55688   3
   6   5  12 12.0043 4.43619   5
   6   5  12 8.81155 4.44072   2
   6   5  12 1.67484 4.60045   4
   2  -6 -12 25.3105 8.90450   3
   2  -6 -12 12.6791 4.45725   4
  -2   6  12 10.1691 4.29259   2
  -2   6  12 19.5634 5.45147   5
   1  -6 -12 4.96807 3.97252   4
   1  -6 -12 16.3318 4.94213   3
  -1   6  12 24.1622 7.65515   2
  -1   6  12 14.5770 2.87539   5
   0  -6 -12 13.0230 4.23076   3
   0   6  12 8.69905 2.53893   5
   0   6  12 3.37628 2.91158   2
  -1  -6 -12 6.14600 3.77261   3
   1   6  12 5.95583 3.07006   2
   1   6  12 6.94481 2.66125   5
  -2  -6 -12 91.3254 9.01477   3
   2   6  12 76.2555 8.17216   2
   2   6  12 72.5530 6.62532   5
  -3  -6 -12 -1.2748 3.54415   3
   3   6  12 -5.3328 3.01721   2
   3   6  12 -3.0618 2.44455   5
  -4  -6 -12 0.12282 3.78602   3
   4   6  12 2.19718 3.59994   2
   4   6  12 2.17762 2.96687   5
  -5  -6 -12 20.6275 5.04369   3
   5   6  12 30.0086 7.74753   5
   5   6  12 38.1805 8.74519   4
   5   6  12 18.7152 4.86617   2
  -6  -6 -12 8.09069 5.82462   3
   6   6  12 -4.6109 4.47984   5
   6   6  12 -2.3233 4.77692   4
   6   6  12 2.30522 5.15206   2
   2  -7 -12 1.45088 4.94624   4
  -2   7  12 18.2010 5.42555   5
  -2   7  12 0.25703 4.08638   2
   1  -7 -12 11.7080 4.77973   3
  -1   7  12 -1.6668 4.02932   2
  -1   7  12 2.78783 2.58847   5
   0  -7 -12 5.95547 3.94918   3
   0   7  12 8.24748 3.75908   2
   0   7  12 10.0061 2.74499   5
   1   7  12 59.4615 6.25011   5
   1   7  12 57.7560 8.17281   2
  -2  -7 -12 2.80026 3.96348   3
   2   7  12 1.09382 3.07472   2
   2   7  12 3.25688 2.50697   5
  -3  -7 -12 3.46397 4.62453   3
   3   7  12 -1.9217 3.62945   2
  -4  -7 -12 59.9700 9.39484   3
   4   7  12 34.9770 8.84029   2
   4   7  12 37.4404 9.67023   4
   4   7  12 54.7257 7.49165   5
  -5  -7 -12 28.2368 9.60725   3
   5   7  12 14.4966 5.04519   2
   5   7  12 26.2818 7.91163   5
  -1   8  12 26.7213 9.20864   2
  -1   8  12 14.0473 2.81165   5
   0  -8 -12 95.0631 10.1238   3
   0   8  12 82.9520 6.62183   5
   0   8  12 69.1160 9.03949   2
  -1  -8 -12 27.4998 8.26880   3
   1   8  12 33.8462 7.92088   2
   1   8  12 25.6556 5.56872   5
  -2  -8 -12 49.6710 9.34894   3
   2   8  12 48.1518 8.36686   2
  -3  -8 -12 1.41194 4.48315   3
   3   8  12 38.5286 10.1089   4
   3   8  12 3.82137 4.01267   2
   3   8  12 3.18724 3.10520   5
  -4  -8 -12 -0.3515 5.27438   3
   4   8  12 5.13611 4.78772   4
   4   8  12 1.76154 4.08989   2
   4   8  12 2.19542 3.26890   5
  -1  -9 -12 -1.8980 4.92802   3
   1   9  12 3.66499 4.13203   2
   1   9  12 0.50813 2.74936   5
  -2  -9 -12 -2.3683 4.54480   3
   2   9  12 4.09020 3.11210   5
   2   9  12 10.0539 4.44168   2
   2   9  12 9.35866 4.53695   4
  -3  -9 -12 4.76397 5.62229   3
   3   9  12 5.48063 5.20516   4
   3   9  12 -5.2406 3.98132   2
   3   9  12 4.48846 3.44166   5
   1   3 -13 42.8885 12.0803   4
   1   3 -13 42.0038 10.4838   3
  -1  -3  13 48.3281 11.7994   5
   0   3 -13 22.0566 5.28182   3
   0   3 -13 16.5387 5.56232   4
   0  -3  13 14.1011 5.45365   5
   0  -3  13 14.6868 5.01389   2
  -1   3 -13 10.3104 5.53110   4
  -1   3 -13 12.2456 4.91770   3
   1  -3  13 3.86896 4.87747   5
   1  -3  13 12.2036 4.51715   2
  -2   3 -13 38.2034 10.2352   3
   2  -3  13 50.8595 16.9518   5
   2   2 -13 -2.1161 5.49339   3
   2   2 -13 -3.4897 5.06863   4
  -2  -2  13 -0.9198 4.53397   5
  -2  -2  13 7.09023 4.97409   2
   1   2 -13 -0.9588 5.89766   3
   1   2 -13 -3.5795 4.94408   4
  -1  -2  13 -6.0566 4.32448   5
  -1  -2  13 -1.7046 4.56555   2
   0   2 -13 5.67470 5.08786   4
   0   2 -13 -4.2374 4.91755   3
   0  -2  13 7.58107 4.52954   2
   0  -2  13 12.0036 5.43365   5
  -1   2 -13 -3.1111 4.29473   4
  -1   2 -13 3.00969 5.06503   3
   1  -2  13 -1.9712 3.55942   2
   1  -2  13 9.29188 5.00877   5
  -2   2 -13 70.5857 10.4183   3
  -2   2 -13 54.5604 9.69124   4
   2  -2  13 57.1167 9.67507   2
   2  -2  13 78.5134 10.4783   5
  -3   2 -13 33.4880 10.8839   3
   3  -2  13 44.6537 10.9199   2
   2   1 -13 111.455 11.0812   3
   2   1 -13 139.779 13.5739   4
  -2  -1  13 142.645 12.1735   5
  -2  -1  13 122.111 11.5649   2
   1   1 -13 9.85022 5.55333   4
   1   1 -13 3.33440 5.07752   3
  -1  -1  13 5.50308 4.26288   5
  -1  -1  13 6.95254 4.48648   2
   0   1 -13 7.66030 4.34711   4
   0   1 -13 11.2628 5.33999   3
   0  -1  13 9.30136 4.16876   2
  -1   1 -13 2.36441 4.75216   3
  -1   1 -13 6.57241 4.86519   4
   1  -1  13 8.64333 4.31982   5
   1  -1  13 -2.2328 3.91644   2
  -2   1 -13 30.6862 8.51631   4
  -2   1 -13 37.3060 9.11450   3
   2  -1  13 32.5851 8.78353   2
   2  -1  13 27.2344 8.33765   5
  -3   1 -13 134.943 11.9865   3
   3  -1  13 100.135 10.9128   5
   3  -1  13 154.569 11.7210   2
  -4   1 -13 2.18122 5.84740   3
   4  -1  13 10.6292 4.77056   5
   4  -1  13 16.1654 5.14784   2
   2   0 -13 -2.3045 4.74217   4
   2   0 -13 4.32168 4.72508   3
  -2   0  13 1.93580 4.17500   5
  -2   0  13 9.17066 4.60522   2
   1   0 -13 68.2585 9.30634   3
   1   0 -13 79.3696 10.6270   4
  -1   0  13 68.7874 9.33554   5
  -1   0  13 57.6940 9.06774   2
   0   0 -13 -0.6458 4.26563   3
   0   0 -13 5.25298 4.51757   4
   0   0  13 -0.9394 3.85276   2
   0   0  13 -6.9644 3.29714   5
  -1   0 -13 29.2679 8.82716   3
  -1   0 -13 25.6468 4.77122   4
   1   0  13 32.4291 8.40829   5
   1   0  13 18.1139 4.37277   2
  -2   0 -13 6.32454 4.96399   3
  -2   0 -13 6.57155 4.31677   4
   2   0  13 -1.8266 3.92061   2
   2   0  13 -1.5382 3.20705   5
  -3   0 -13 2.35767 5.14321   3
   3   0  13 -7.6104 4.00016   5
   3   0  13 4.10318 4.14035   2
  -4   0 -13 -6.4069 4.84249   3
   4   0  13 3.36003 4.59437   2
   4   0  13 0.01072 5.01379   5
  -5   0 -13 20.5183 6.79589   3
   5   0  13 13.8951 6.46128   5
   5   0  13 11.2380 4.36875   2
   2  -1 -13 68.3446 10.5559   4
   2  -1 -13 73.2278 8.93210   3
  -2   1  13 60.7273 9.48850   2
  -2   1  13 63.1774 9.04087   5
   1  -1 -13 20.0106 4.97317   4
   1  -1 -13 30.9232 7.70308   3
  -1   1  13 25.2298 7.75016   5
  -1   1  13 18.2469 4.27299   2
   0  -1 -13 13.8214 4.81421   3
   0  -1 -13 15.5890 4.46296   4
   0   1  13 12.7416 3.67562   5
   0   1  13 33.4250 7.86447   2
  -1  -1 -13 29.5167 8.66488   4
  -1  -1 -13 30.6777 7.63046   3
   1   1  13 26.9069 8.10426   5
   1   1  13 24.2515 7.49005   2
  -2  -1 -13 9.88038 3.98213   4
  -2  -1 -13 15.9527 4.99440   3
   2   1  13 14.2965 3.62453   5
   2   1  13 12.1115 4.39912   2
  -3  -1 -13 12.2976 4.78559   3
   3   1  13 13.9597 4.25971   2
   3   1  13 6.17140 4.25812   5
  -4  -1 -13 4.07164 4.66638   3
   4   1  13 33.3046 8.90678   2
   4   1  13 1.78525 4.03987   5
  -5  -1 -13 4.66667 5.66452   3
   5   1  13 1.28358 5.17404   5
   5   1  13 3.78835 4.75888   4
   5   1  13 -2.7099 4.77479   2
   2  -2 -13 -4.9221 4.30314   3
   2  -2 -13 -6.0253 4.60257   4
  -2   2  13 -1.4559 3.86261   2
  -2   2  13 -2.5955 3.31128   5
   1  -2 -13 78.0912 10.5613   4
   1  -2 -13 73.8412 8.77358   3
  -1   2  13 81.9124 9.03640   2
  -1   2  13 70.4377 8.26505   5
   0  -2 -13 -0.6773 3.80106   4
   0  -2 -13 -0.8390 4.00915   3
   0   2  13 -4.3823 2.82751   5
   0   2  13 -1.8283 3.15286   2
  -1  -2 -13 128.054 10.2390   4
  -1  -2 -13 151.158 10.3441   3
   1   2  13 147.481 11.0314   2
   1   2  13 142.305 9.58117   5
  -2  -2 -13 2.30533 4.08273   4
  -2  -2 -13 5.06994 4.14178   3
   2   2  13 -4.2224 3.37537   2
   2   2  13 0.98592 3.05948   5
   3   2  13 25.5520 8.01084   2
   3   2  13 29.7429 5.37913   5
  -4  -2 -13 5.20356 4.84050   3
   4   2  13 -0.3933 4.14534   2
   4   2  13 -0.0900 3.72996   5
  -5  -2 -13 -3.4837 5.39467   3
   5   2  13 4.93898 4.48033   4
   5   2  13 6.47458 4.98638   2
   5   2  13 3.03427 4.62341   5
   2  -3 -13 25.4223 5.10675   3
   2  -3 -13 30.0687 6.40031   4
  -2   3  13 44.8875 9.25714   2
  -2   3  13 37.4952 7.39252   5
   1  -3 -13 10.3189 4.79603   4
   1  -3 -13 12.8790 5.03939   3
  -1   3  13 8.60371 3.62582   2
  -1   3  13 9.75351 3.39195   5
   0  -3 -13 66.7200 8.84762   3
   0  -3 -13 59.8803 9.57976   4
   0   3  13 66.3033 8.37444   2
   0   3  13 45.9958 7.04542   5
  -1  -3 -13 9.55928 4.65178   3
  -1  -3 -13 2.98771 3.83482   4
   1   3  13 1.31293 3.27766   2
   1   3  13 27.6597 7.04799   5
  -2  -3 -13 116.379 9.91053   3
   2   3  13 103.355 10.2887   2
   2   3  13 114.562 8.90091   5
  -3  -3 -13 36.9426 8.58436   3
   3   3  13 24.7425 8.65288   2
   3   3  13 37.7329 8.26001   5
  -4  -3 -13 8.98567 5.33704   3
   4   3  13 3.16997 3.73543   2
   4   3  13 2.67529 3.76658   5
  -5  -3 -13 -2.2006 5.14821   3
   5   3  13 -4.6911 3.80426   5
   5   3  13 -3.6050 4.30406   4
   5   3  13 -4.5339 4.21254   2
   2  -4 -13 7.22176 5.11136   4
  -2   4  13 4.13267 4.73589   2
  -2   4  13 0.64402 3.02382   5
   1  -4 -13 2.78883 4.14733   3
   1  -4 -13 12.4053 4.57017   4
  -1   4  13 5.26112 4.05016   2
  -1   4  13 10.5417 3.36802   5
   0  -4 -13 -4.7292 4.06137   3
   0  -4 -13 9.29075 4.23308   4
   0   4  13 7.72050 3.28023   5
   0   4  13 1.14947 3.52261   2
  -1  -4 -13 7.76588 4.29332   4
  -1  -4 -13 8.18633 4.63943   3
   1   4  13 5.64669 3.22513   5
   2   4  13 4.54251 3.37262   5
   2   4  13 1.86358 3.43423   2
  -3  -4 -13 18.8391 5.25824   3
   3   4  13 14.2395 4.61016   2
  -4  -4 -13 -3.5585 4.86051   3
   4   4  13 5.77444 4.09320   2
  -5  -4 -13 -1.9608 4.95189   3
   5   4  13 16.0767 5.57003   2
   5   4  13 16.7946 5.28809   5
   5   4  13 4.66774 5.08853   4
   2  -5 -13 1.93842 4.85200   4
   1  -5 -13 8.81553 4.37856   4
   1  -5 -13 3.09841 4.60535   3
  -1   5  13 5.33033 4.45996   2
   0  -5 -13 15.0090 4.95653   3
   0  -5 -13 5.58574 4.00227   4
   0   5  13 10.2850 3.21990   5
   0   5  13 2.71050 3.59657   2
  -1  -5 -13 31.2728 5.77275   3
   1   5  13 36.8162 7.55189   2
   1   5  13 23.9472 4.00643   5
  -2  -5 -13 25.0261 8.48899   3
   2   5  13 11.2613 4.42857   2
   2   5  13 13.9918 3.18466   5
  -3  -5 -13 -1.4825 4.26795   3
   3   5  13 2.06344 3.50394   5
   3   5  13 29.2723 9.09368   2
  -4  -5 -13 6.46751 4.64746   3
   4   5  13 6.20108 3.39490   5
   4   5  13 26.4459 8.81370   2
  -5  -5 -13 -7.1637 5.07353   3
   5   5  13 2.47776 4.34633   5
   5   5  13 2.10194 4.28732   2
   5   5  13 -0.1205 5.15355   4
   1  -6 -13 4.42312 4.57586   4
   1  -6 -13 9.43198 5.21026   3
  -1   6  13 8.97316 3.21271   5
  -1   6  13 9.90513 4.61102   2
   0  -6 -13 33.5283 9.17096   3
   0   6  13 14.4696 4.41954   2
   0   6  13 14.0758 3.16899   5
  -1  -6 -13 9.16669 5.00767   3
   1   6  13 0.37388 2.76529   5
   1   6  13 -3.7264 3.28856   2
  -2  -6 -13 28.9921 8.99298   3
   2   6  13 21.1336 6.75524   5
   2   6  13 30.5327 9.50408   2
  -3  -6 -13 28.7224 8.65098   3
   3   6  13 37.2891 9.04018   2
   3   6  13 23.7187 7.06666   5
  -4  -6 -13 24.6400 5.76942   3
   4   6  13 32.7107 8.22443   5
   4   6  13 37.3631 8.98984   2
   0  -7 -13 -8.7410 4.56841   3
   0   7  13 -2.3570 3.54986   2
   0   7  13 -3.9675 2.69304   5
  -1  -7 -13 -6.7936 5.14044   3
   1   7  13 0.31257 2.81713   5
   1   7  13 -5.3137 3.57567   2
  -2  -7 -13 15.3149 5.07514   3
   2   7  13 10.4118 4.87910   2
   2   7  13 5.94286 3.07221   5
  -3  -7 -13 -2.8675 5.36255   3
   3   7  13 1.71860 4.03451   2
   4   7  13 6.08254 4.36724   2
   0   0 -14 32.9384 11.1920   4
   0   0 -14 28.7827 6.84400   3
   0   0  14 16.0866 4.92988   2
   0   0  14 25.5857 5.80730   5
  -1   0 -14 0.30725 5.82609   3
  -1   0 -14 4.56519 5.17763   4
   1   0  14 5.89715 4.78196   5
  -2   0 -14 9.62486 6.17953   3
  -2   0 -14 3.32842 4.84056   4
   2   0  14 35.8657 10.8272   5
   2   0  14 12.9624 4.71922   2
   0  -1 -14 83.8626 12.0141   4
   0  -1 -14 85.4344 10.3642   3
   0   1  14 86.3286 11.4099   2
   0   1  14 102.301 11.3658   5
  -1  -1 -14 4.72952 4.72281   4
  -1  -1 -14 10.6555 5.18433   3
   1   1  14 16.9703 5.68662   5
   1   1  14 2.15431 4.95726   2
  -2  -1 -14 104.650 12.1356   4
  -2  -1 -14 100.904 11.2129   3
   2   1  14 111.672 11.3857   5
  -3  -1 -14 45.5135 10.3336   3
   3   1  14 20.9890 4.85434   2
   3   1  14 28.2372 6.31027   5
   0  -2 -14 38.7340 10.1916   3
   0   2  14 48.8636 10.3472   2
   0   2  14 50.5315 9.75767   5
  -1  -2 -14 8.50353 5.03469   4
  -1  -2 -14 1.37304 5.11898   3
   1   2  14 1.11515 4.43690   2
   1   2  14 8.00306 4.26324   5
  -2  -2 -14 10.1291 5.60870   3
   2   2  14 3.80737 4.94194   2
  -3  -2 -14 23.0812 6.37384   3
   3   2  14 38.5928 9.96055   2
   3   2  14 32.1957 10.7138   5
   0  -3 -14 -9.4937 5.28763   3
   0   3  14 1.38796 3.97312   5
   0   3  14 1.93141 4.09325   2
  -1  -3 -14 40.4709 10.1388   3
  -1  -3 -14 9.40895 4.93929   4
   1   3  14 33.8313 10.3276   2
   1   3  14 14.5529 4.45365   5
  -2  -3 -14 14.5393 5.44044   3
   2   3  14 39.7504 9.00240   5
   2   3  14 6.07736 4.30227   2
  -3  -3 -14 58.3018 10.5806   3
   3   3  14 33.9869 10.2364   2
   0  -4 -14 -2.7270 4.84651   4
   0  -4 -14 9.98727 5.90734   3
   0   4  14 -2.4501 3.61414   5
   0   4  14 -2.5454 4.05854   2
  -1  -4 -14 15.1734 6.46751   3
   1   4  14 7.06958 3.96713   5
   1   4  14 17.1526 4.85719   2
  -2  -4 -14 14.2275 5.73918   3
   2   4  14 11.9246 4.03645   5
   2   4  14 7.52292 4.63594   2
  -3  -4 -14 -10.612 5.25304   3
   3   4  14 -1.1268 3.83821   5
   3   4  14 -4.3375 4.31850   2
   1   5  14 23.5834 5.50054   2
   1   5  14 48.5935 8.91276   5
  -2  -5 -14 7.15074 5.83433   3
   2   5  14 11.3752 5.05648   2
   2   5  14 -0.5650 4.05389   5
   0   0   0    0.00    0.00   0
 _exptl_absorpt_process_details 'SADABS 2014/5'
 _exptl_absorpt_correction_type   numerical
 _exptl_absorpt_correction_T_max  1.0000
 _exptl_absorpt_correction_T_min  0.9562
 _exptl_special_details
)
 The following wavelength and cell were deduced by SADABS from the
 direction cosines etc. They are given here for emergency use only:
 CELL 0.71070    6.947    9.529    9.900   80.437   81.700   80.914
)
;
_shelx_hkl_checksum     94079
_shelx_res_file
;
    mo_an0427_0m.res created by SHELXL-2014/7
TITL mo_an0427_0m_a.res in P-1
REM Old TITL mo_AN0427_0m in P-1 #2
REM SHELXT solution in P-1
REM R1 0.135, Rweak 0.005, Alpha 0.024, Orientation as input
REM Formula found by SHELXT: C12 N O3
CELL 0.71073 6.9428 9.5286 9.8927 80.415 81.697 80.927
ZERR 1 0.0004 0.0005 0.0006 0.002 0.002 0.002
LATT 1
SFAC C H N O
UNIT 24 42 2 6
L.S. 4 0 0
PLAN  20
SIZE 0.283 0.342 0.491
TEMP -100
BOND $H
LIST 4
fmap 2 53
MORE -1
ACTA 52
CONF
OMIT -2 56
REM <olex2.extras>
REM <HklSrc "%.\\mo_AN0427_0m.hkl">
REM </olex2.extras>
WGHT    0.045400    0.176100
FVAR       1.20903
O3    4    0.327679    0.494964    0.768199    11.00000    0.02718    0.02230 =
         0.02531   -0.00853    0.00433   -0.00804
O1    4    0.474617    0.272821    0.325738    11.00000    0.02312    0.02824 =
         0.01895   -0.00397   -0.00176   -0.00700
O2    4    0.241080    0.307003    0.593916    11.00000    0.03440    0.02096 =
         0.02225   -0.00554    0.00061   -0.00531
C10   1    0.509053    0.668215    0.817329    11.00000    0.02489    0.02233 =
         0.01956   -0.00284   -0.00551   -0.00130
C5    1    0.315268    0.607037    0.849804    11.00000    0.02833    0.02084 =
         0.01626   -0.00468   -0.00131   -0.00324
C2    1    0.282231    0.180014    0.530714    11.00000    0.03082    0.02221 =
         0.02760   -0.00722    0.00339   -0.00950
C1    1    0.293082    0.220301    0.376797    11.00000    0.02626    0.03243 =
         0.02731   -0.00992   -0.00025   -0.01170
C4    1    0.169351    0.412946    0.800639    11.00000    0.02620    0.02659 =
         0.02570   -0.00723    0.00299   -0.00810
C3    1    0.226407    0.274990    0.739908    11.00000    0.02864    0.02287 =
         0.02219   -0.00345    0.00088   -0.00862
C6    1    0.142158    0.725193    0.828173    11.00000    0.02411    0.02588 =
         0.02366   -0.00649   -0.00102   -0.00216
C9    1    0.509762    0.780312    0.911666    11.00000    0.03352    0.03076 =
         0.02210   -0.00779   -0.00538   -0.00785
C8    1    0.338346    0.900615    0.892923    11.00000    0.04083    0.02486 =
         0.03035   -0.01186   -0.00285   -0.00459
C7    1    0.143090    0.841863    0.917357    11.00000    0.03289    0.02916 =
         0.03347   -0.01374    0.00093    0.00107
C12   1    0.250683    0.766901    0.349418    11.00000    0.02775    0.04025 =
         0.04114   -0.00795   -0.00734   -0.00684
N1    3    0.233515    0.876396    0.281693    11.00000    0.05392    0.04736 =
         0.07546    0.00623   -0.01970   -0.01210
C11   1    0.272118    0.627162    0.434424    11.00000    0.03174    0.03706 =
         0.03398   -0.00629   -0.00322   -0.00089
H5    2    0.306675    0.564443    0.947530    11.00000    0.02138
H6A   2    0.150961    0.766545    0.732387    11.00000    0.02156
H8A   2    0.357490    0.952526    0.798873    11.00000    0.03191
H1A   2    0.182776    0.296071    0.352919    11.00000    0.03076
H2A   2    0.408331    0.124599    0.557216    11.00000    0.03239
H10   2    0.618179    0.590365    0.831874    11.00000    0.02381
H3A   2    0.355909    0.225352    0.768911    11.00000    0.02278
H9A   2    0.499245    0.731792    1.006112    11.00000    0.03230
H2B   2    0.178669    0.121731    0.563482    11.00000    0.02891
H4A   2    0.140190    0.386892    0.903533    11.00000    0.03072
H3B   2    0.124128    0.211321    0.774853    11.00000    0.02642
H6B   2    0.014527    0.684116    0.852679    11.00000    0.02778
H9B   2    0.636224    0.818163    0.894114    11.00000    0.03168
H7A   2    0.121242    0.800190    1.011861    11.00000    0.03471
H1B   2    0.280553    0.136223    0.336291    11.00000    0.03586
H8B   2    0.336638    0.969397    0.955640    11.00000    0.03753
H4B   2    0.052782    0.465891    0.763543    11.00000    0.03335
H7B   2    0.034017    0.916017    0.900636    11.00000    0.04040
H11A  2    0.359528    0.562806    0.385795    11.00000    0.05495
H11B  2    0.146651    0.593613    0.457192    11.00000    0.05727
H11C  2    0.326244    0.635401    0.516889    11.00000    0.06903
HKLF 4
REM  mo_an0427_0m_a.res in P-1
REM R1 =  0.0411 for    2476 Fo > 4sig(Fo)  and  0.0536 for all    3045 data
REM    229 parameters refined using      0 restraints
END
WGHT      0.0454      0.1761
REM Highest difference peak  0.292,  deepest hole -0.193,  1-sigma level  0.040
Q1    1   0.2776  0.2153  0.4562  11.00000  0.05    0.29
Q2    1   0.2288  0.6642  0.8405  11.00000  0.05    0.29
Q3    1   0.2037  0.3473  0.7688  11.00000  0.05    0.28
Q4    1   0.3997  0.6537  0.8205  11.00000  0.05    0.28
Q5    1   0.5122  0.7216  0.8636  11.00000  0.05    0.26
Q6    1   0.1522  0.7813  0.8725  11.00000  0.05    0.25
Q7    1   0.4221  0.8369  0.8958  11.00000  0.05    0.23
Q8    1   0.5187  0.6982  0.7548  11.00000  0.05    0.23
Q9    1   0.2005  0.8835  0.3624  11.00000  0.05    0.22
Q10   1   0.2375  0.8803  0.8871  11.00000  0.05    0.19
Q11   1   0.1976  0.7983  0.2797  11.00000  0.05    0.18
Q12   1   0.2068  0.2982  0.6611  11.00000  0.05    0.18
Q13   1   0.3138  0.5542  0.8032  11.00000  0.05    0.17
Q14   1   0.2451  0.8160  0.2641  11.00000  0.05    0.16
Q15   1   0.2589  0.4464  0.8002  11.00000  0.05    0.16
Q16   1   0.4018  0.2404  0.3488  11.00000  0.05    0.16
Q17   1   0.5582  0.2316  0.3489  11.00000  0.05    0.15
Q18   1   0.0663  0.4442  0.8218  11.00000  0.05    0.15
Q19   1   0.2652  0.2368  0.5652  11.00000  0.05    0.15
Q20   1   0.1555  0.7410  1.0613  11.00000  0.05    0.14
;
_shelx_res_checksum     9306
